                                  MODFLOW-NWT-SWR1 
      U.S. GEOLOGICAL SURVEY MODULAR FINITE-DIFFERENCE GROUNDWATER-FLOW MODEL
                            VERSION 1.2.0 03/01/2020
                    BASED ON MODFLOW-2005 VERSION 1.12.00 02/03/2017

 LIST FILE: ./output/Agwater1_high.lst
                         UNIT    9

 OPENING ./input/Agwater1.ba6
 FILE TYPE:BAS6   UNIT   75   STATUS:OLD    
 FORMAT:FORMATTED              ACCESS:SEQUENTIAL          

 OPENING ./input/Agwater1.upw
 FILE TYPE:UPW   UNIT    7   STATUS:OLD    
 FORMAT:FORMATTED              ACCESS:SEQUENTIAL          

 OPENING ./input/Agwater1.dis
 FILE TYPE:DIS   UNIT    8   STATUS:OLD    
 FORMAT:FORMATTED              ACCESS:SEQUENTIAL          

 OPENING ./input/Agwater1.nwt
 FILE TYPE:NWT   UNIT   13   STATUS:OLD    
 FORMAT:FORMATTED              ACCESS:SEQUENTIAL          

 OPENING ./input/Agwater1.oc
 FILE TYPE:OC   UNIT   14   STATUS:OLD    
 FORMAT:FORMATTED              ACCESS:SEQUENTIAL          

 OPENING ./input/Agwater1.sfr
 FILE TYPE:SFR   UNIT   15   STATUS:OLD    
 FORMAT:FORMATTED              ACCESS:SEQUENTIAL          

 OPENING ./input/Agwater1.ghb
 FILE TYPE:GHB   UNIT   17   STATUS:OLD    
 FORMAT:FORMATTED              ACCESS:SEQUENTIAL          

 OPENING ./input/Agwater1_high.uzf
 FILE TYPE:UZF   UNIT   19   STATUS:OLD    
 FORMAT:FORMATTED              ACCESS:SEQUENTIAL          

 OPENING ./input/Agwater1.gag
 FILE TYPE:GAGE   UNIT   32   STATUS:OLD    
 FORMAT:FORMATTED              ACCESS:SEQUENTIAL          

 OPENING ./input/seg1.tab
 FILE TYPE:DATA   UNIT   55   STATUS:UNKNOWN
 FORMAT:FORMATTED              ACCESS:SEQUENTIAL          

 OPENING ./input/seg9.tab
 FILE TYPE:DATA   UNIT   56   STATUS:UNKNOWN
 FORMAT:FORMATTED              ACCESS:SEQUENTIAL          

 OPENING ./input/Agwater1.ag
 FILE TYPE:AG   UNIT   57   STATUS:OLD    
 FORMAT:FORMATTED              ACCESS:SEQUENTIAL          

 OPENING ./output/EP1b_Agwater1_high.hed
 FILE TYPE:DATA   UNIT   62   STATUS:UNKNOWN
 FORMAT:FORMATTED              ACCESS:SEQUENTIAL          

 OPENING ./output/Agwater1GW_high.ts5
 FILE TYPE:DATA   UNIT  105   STATUS:UNKNOWN
 FORMAT:FORMATTED              ACCESS:SEQUENTIAL          

 OPENING ./output/Agwater1GW_high_ET.ts5
 FILE TYPE:DATA   UNIT  106   STATUS:UNKNOWN
 FORMAT:FORMATTED              ACCESS:SEQUENTIAL          

 OPENING ./output/Agwater1GW_high_ET.all
 FILE TYPE:DATA   UNIT  107   STATUS:UNKNOWN
 FORMAT:FORMATTED              ACCESS:SEQUENTIAL          

 OPENING ./output/Agwater1GW_high.all
 FILE TYPE:DATA   UNIT  108   STATUS:UNKNOWN
 FORMAT:FORMATTED              ACCESS:SEQUENTIAL          

 OPENING ./output/Agwater1_high.uzfot
 FILE TYPE:DATA(BINARY)   UNIT   61   STATUS:UNKNOWN
 FORMAT:BINARY                 ACCESS:SEQUENTIAL          

 OPENING ./output/Agwater1cbc_high.unf
 FILE TYPE:DATA(BINARY)   UNIT  102   STATUS:UNKNOWN
 FORMAT:BINARY                 ACCESS:SEQUENTIAL          

 OPENING ./output/Agwater1_high.uzf1
 FILE TYPE:DATA   UNIT   65   STATUS:UNKNOWN
 FORMAT:FORMATTED              ACCESS:SEQUENTIAL          

 OPENING ./output/Agwater1_high.uzf2
 FILE TYPE:DATA   UNIT   66   STATUS:UNKNOWN
 FORMAT:FORMATTED              ACCESS:SEQUENTIAL          

 OPENING ./output/Agwater1_high.uzf3
 FILE TYPE:DATA   UNIT   67   STATUS:UNKNOWN
 FORMAT:FORMATTED              ACCESS:SEQUENTIAL          

 OPENING ./output/Agwater1_high.uzf4
 FILE TYPE:DATA   UNIT   68   STATUS:UNKNOWN
 FORMAT:FORMATTED              ACCESS:SEQUENTIAL          

 OPENING ./output/Agwater1_high.flw
 FILE TYPE:DATA   UNIT   81   STATUS:UNKNOWN
 FORMAT:FORMATTED              ACCESS:SEQUENTIAL          

 OPENING ./output/Agwater1_high.sg1
 FILE TYPE:DATA   UNIT   83   STATUS:UNKNOWN
 FORMAT:FORMATTED              ACCESS:SEQUENTIAL          

 OPENING ./output/Agwater1_high.sg2
 FILE TYPE:DATA   UNIT   84   STATUS:UNKNOWN
 FORMAT:FORMATTED              ACCESS:SEQUENTIAL          

 OPENING ./output/Agwater1_high.sg3
 FILE TYPE:DATA   UNIT   85   STATUS:UNKNOWN
 FORMAT:FORMATTED              ACCESS:SEQUENTIAL          

 OPENING ./output/Agwater1_high.sg4
 FILE TYPE:DATA   UNIT   86   STATUS:UNKNOWN
 FORMAT:FORMATTED              ACCESS:SEQUENTIAL          

 OPENING ./output/Agwater1_high.sg5
 FILE TYPE:DATA   UNIT   87   STATUS:UNKNOWN
 FORMAT:FORMATTED              ACCESS:SEQUENTIAL          

 OPENING ./output/Agwater1_high.sg6
 FILE TYPE:DATA   UNIT   88   STATUS:UNKNOWN
 FORMAT:FORMATTED              ACCESS:SEQUENTIAL          

 OPENING ./output/Agwater1_high.sg7
 FILE TYPE:DATA   UNIT   89   STATUS:UNKNOWN
 FORMAT:FORMATTED              ACCESS:SEQUENTIAL          

 OPENING ./output/Agwater1_high.sg8
 FILE TYPE:DATA   UNIT   90   STATUS:UNKNOWN
 FORMAT:FORMATTED              ACCESS:SEQUENTIAL          

 BAS -- BASIC PACKAGE, VERSION 1.1.4, 4/01/2018 INPUT READ FROM UNIT   75
 
 MODFLOW was compiled using mixed precision
 Precision of REAL variables:           6
 Precision of DOUBLE PRECISION variables:          15

 DISCRETIZATION INPUT DATA READ FROM UNIT    8
 #Test problem 2-- Discretization input
 #Example problem using the UZF1 Package
    1 LAYERS        15 ROWS        10 COLUMNS
   49 STRESS PERIOD(S) IN SIMULATION
 MODEL TIME UNIT IS SECONDS
 MODEL LENGTH UNIT IS FEET
  Confining bed flag for each layer:
   0

                     DELR =   5000.00    

                     DELC =   5000.00    



           TOP ELEVATION OF LAYER 1
 READING ON UNIT    8 WITH FORMAT: (10F7.0)            

            1           2           3           4           5           6           7           8           9          10
 ........................................................................................................................
   1    1105.       1105.       0.000       0.000       0.000       0.000       0.000       0.000       0.000       0.000    
   2    1105.       1095.       1105.       0.000       0.000       1100.       1100.       1110.       0.000       0.000    
   3    0.000       1100.       1085.       1080.       1078.       1076.       1073.       1090.       0.000       0.000    
   4    1110.       1100.       1090.       1085.       1076.       1080.       1080.       1070.       1100.       0.000    
   5    1110.       1100.       1085.       1080.       1078.       1074.       1077.       1066.       1075.       1080.    
   6    1105.       1095.       1080.       1077.       1073.       1069.       1070.       1063.       1085.       1095.    
   7    1105.       1090.       1075.       1072.       1070.       1065.       1065.       1069.       1090.       0.000    
   8    0.000       1080.       1070.       1068.       1063.       1060.       1063.       1067.       1090.       0.000    
   9    0.000       1075.       1065.       1062.       1058.       1052.       1055.       1065.       1090.       0.000    
  10    0.000       1070.       1060.       1055.       1046.       1046.       1044.       1060.       1088.       1100.    
  11    0.000       1055.       1050.       1045.       1041.       1042.       1040.       1050.       1075.       0.000    
  12    1027.       1028.       1028.       1032.       1032.       1033.       1032.       1040.       1060.       0.000    
  13    997.0       1004.       1008.       1014.       1020.       1027.       1032.       1038.       1050.       0.000    
  14    0.000       1030.       1040.       1045.       1050.       1050.       1050.       1050.       1044.       0.000    
  15    0.000       0.000       1080.       1080.       1080.       1080.       0.000       0.000       0.000       0.000    



             MODEL LAYER BOTTOM EL. FOR LAYER   1
 READING ON UNIT    8 WITH FORMAT: (10F7.0)            

            1           2           3           4           5           6           7           8           9          10
 ........................................................................................................................
   1    1000.       1000.       0.000       0.000       0.000       0.000       0.000       0.000       0.000       0.000    
   2    1000.       900.0       900.0       0.000       0.000       950.0       950.0       950.0       0.000       0.000    
   3    0.000       850.0       670.0       680.0       680.0       770.0       770.0       890.0       0.000       0.000    
   4    925.0       850.0       650.0       650.0       650.0       680.0       740.0       850.0       950.0       0.000    
   5    925.0       800.0       650.0       600.0       600.0       600.0       650.0       720.0       850.0       950.0    
   6    925.0       800.0       650.0       600.0       550.0       600.0       650.0       720.0       850.0       970.0    
   7    925.0       800.0       650.0       600.0       550.0       600.0       650.0       720.0       950.0       0.000    
   8    0.000       850.0       700.0       650.0       570.0       600.0       700.0       850.0       950.0       0.000    
   9    0.000       850.0       700.0       650.0       540.0       580.0       700.0       850.0       950.0       0.000    
  10    0.000       850.0       700.0       630.0       530.0       580.0       650.0       800.0       900.0       950.0    
  11    0.000       850.0       700.0       620.0       580.0       620.0       700.0       800.0       900.0       0.000    
  12    900.0       830.0       710.0       640.0       600.0       650.0       700.0       800.0       900.0       0.000    
  13    900.0       810.0       750.0       700.0       650.0       700.0       750.0       800.0       900.0       0.000    
  14    0.000       950.0       850.0       850.0       850.0       850.0       850.0       850.0       850.0       0.000    
  15    0.000       0.000       950.0       950.0       950.0       950.0       0.000       0.000       0.000       0.000    


 STRESS PERIOD     LENGTH       TIME STEPS     MULTIPLIER FOR DELT    SS FLAG
 ----------------------------------------------------------------------------
        1         86400.00          1                    1.000         SS
        2         2630000.         30                    1.000         TR
        3         2630000.         30                    1.000         TR
        4         2630000.         30                    1.000         TR
        5         2630000.         30                    1.000         TR
        6         2630000.         30                    1.000         TR
        7         2630000.         30                    1.000         TR
        8         2630000.         30                    1.000         TR
        9         2630000.         30                    1.000         TR
       10         2630000.         30                    1.000         TR
       11         2630000.         30                    1.000         TR
       12         2630000.         30                    1.000         TR
       13         2630000.         30                    1.000         TR
       14         2630000.         30                    1.000         TR
       15         2630000.         30                    1.000         TR
       16         2630000.         30                    1.000         TR
       17         2630000.         30                    1.000         TR
       18         2630000.         30                    1.000         TR
       19         2630000.         30                    1.000         TR
       20         2630000.         30                    1.000         TR
       21         2630000.         30                    1.000         TR
       22         2630000.         30                    1.000         TR
       23         2630000.         30                    1.000         TR
       24         2630000.         30                    1.000         TR
       25         2630000.         30                    1.000         TR
       26         2630000.         30                    1.000         TR
       27         2630000.         30                    1.000         TR
       28         2630000.         30                    1.000         TR
       29         2630000.         30                    1.000         TR
       30         2630000.         30                    1.000         TR
       31         2630000.         30                    1.000         TR
       32         2630000.         30                    1.000         TR
       33         2630000.         30                    1.000         TR
       34         2630000.         30                    1.000         TR
       35         2630000.         30                    1.000         TR
       36         2630000.         30                    1.000         TR
       37         2630000.         30                    1.000         TR
       38         2630000.         30                    1.000         TR
       39         2630000.         30                    1.000         TR
       40         2630000.         30                    1.000         TR
       41         2630000.         30                    1.000         TR
       42         2630000.         30                    1.000         TR
       43         2630000.         30                    1.000         TR
       44         2630000.         30                    1.000         TR
       45         2630000.         30                    1.000         TR
       46         2630000.         30                    1.000         TR
       47         2630000.         30                    1.000         TR
       48         2630000.         30                    1.000         TR
       49         2630000.         30                    1.000         TR

 COMBINED STEADY-STATE AND TRANSIENT SIMULATION



 
 #Test Simulation 2-- Example problem using the UZF1 Package                     
 #Modified from example Problem 1 of SFR1 documentation report                   
 THE FREE FORMAT OPTION HAS BEEN SELECTED



                     BOUNDARY ARRAY FOR LAYER   1
 READING ON UNIT   75 WITH FORMAT: (20I4)              

                1           2           3           4           5           6           7           8           9          10
 ............................................................................................................................
   1            1           1           0           0           0           0           0           0           0           0
   2            1           1           1           0           0           1           1           1           0           0
   3            0           1           1           1           1           1           1           1           0           0
   4            1           1           1           1           1           1           1           1           1           0
   5            1           1           1           1           1           1           1           1           1           1
   6            1           1           1           1           1           1           1           1           1           1
   7            1           1           1           1           1           1           1           1           1           0
   8            0           1           1           1           1           1           1           1           1           0
   9            0           1           1           1           1           1           1           1           1           0
  10            0           1           1           1           1           1           1           1           1           1
  11            0           1           1           1           1           1           1           1           1           0
  12            1           1           1           1           1           1           1           1           1           0
  13            1           1           1           1           1           1           1           1           1           0
  14            0           1           1           1           1           1           1           1           1           0
  15            0           0           1           1           1           1           0           0           0           0

 AQUIFER HEAD WILL BE SET TO   6999.0     AT ALL NO-FLOW NODES (IBOUND=0).



                       INITIAL HEAD FOR LAYER   1
 READING ON UNIT   75 WITH FORMAT: (10F8.0)            

            1           2           3           4           5           6           7           8           9          10
 ........................................................................................................................
   1    1093.       1089.       6999.       6999.       6999.       6999.       6999.       6999.       6999.       6999.    
   2    1090.       1087.       1081.       6999.       6999.       1072.       1071.       1071.       6999.       6999.    
   3    6999.       1079.       1078.       1074.       1072.       1071.       1069.       1068.       6999.       6999.    
   4    1069.       1071.       1070.       1067.       1065.       1064.       1064.       1066.       1066.       6999.    
   5    1065.       1064.       1063.       1062.       1061.       1061.       1060.       1062.       1066.       1068.    
   6    1060.       1058.       1057.       1056.       1056.       1057.       1057.       1059.       1062.       1066.    
   7    1056.       1053.       1052.       1051.       1051.       1052.       1053.       1055.       1056.       6999.    
   8    6999.       1046.       1046.       1046.       1046.       1046.       1048.       1050.       1050.       6999.    
   9    6999.       1039.       1039.       1039.       1040.       1041.       1042.       1043.       1044.       6999.    
  10    6999.       1031.       1032.       1033.       1034.       1035.       1037.       1038.       1039.       1042.    
  11    6999.       1021.       1023.       1027.       1029.       1030.       1032.       1034.       1036.       6999.    
  12    1001.       1009.       1015.       1020.       1023.       1026.       1029.       1030.       1034.       6999.    
  13    994.5      1000.0       1007.       1013.       1019.       1024.       1029.       1034.       1036.       6999.    
  14    6999.       1004.       1009.       1014.       1019.       1024.       1029.       1035.       1039.       6999.    
  15    6999.       6999.       1012.       1015.       1019.       1022.       6999.       6999.       6999.       6999.    

 OUTPUT CONTROL IS SPECIFIED ONLY AT TIME STEPS FOR WHICH OUTPUT IS DESIRED
 HEADS WILL BE SAVED WITH FORMAT: (10F10.3)           
 SAVED HEADS WILL BE LABELED
 COMPACT CELL-BY-CELL BUDGET FILES WILL BE WRITTEN
 HEAD PRINT FORMAT CODE IS   4    DRAWDOWN PRINT FORMAT CODE IS   0
 HEADS WILL BE SAVED ON UNIT   62    DRAWDOWNS WILL BE SAVED ON UNIT    0
 # NWT Input File
 # Test Problem 3 for MODFLOW-NWT
 #HEADTOL  FLUXTOL MAXITEROUT THICKFACT LINMETH IPRNWT IBOTAV OPTIONS DBDREDUCE DBDINCREASE DBDGAMMA MOMFACT BACKFLAG MAXBACKITER BACKTOL BACKREDUCE

 NWT1 -- Newton Solver, VERSION 1.1.4, 4/01/2018
         INPUT READ FROM UNIT 13

 SPECIFIED OPTION:
 SOLVER INPUT VALUES ARE SPECIFIED BY USER
 ***XMD linear solver will be used***
 
   CONVERGENCE CRITERION OF   0.100000E-03 FOR HEAD SOLUTION
   AND A TOLERANCE OF   0.100000E+03 FOR FLOW SOLUTION AND 
   A MAXIMUM OF   500 OUTER ITERATIONS. 


   D-B-D REDUCTION FACTOR OF    0.970000E+00 AND 
   A D-B-D INCREASE FACTOR OF    0.100000E-04 AND 
   A D-B-D RELAXATION OF    0.000000E+00 AND 
   A MOMENTUM FACTOR OF    0.100000E+00 .


 ***BACKTRACKING IS INACTIVE***
 XMD -- LINEAR SOLUTION BY XMD PACKAGE VERSION 1.30
     BY MOTOMU IBARAKI, OHIO STATE UNIVERSITY, COLOMBUS, OH
                 INPUT READ FROM UNIT 13
 ACCELERATION METHOD                    (IACL) =         1
 NODE ORDERING FLAG                   (NORDER) =         0
 LEVEL OF FILL                         (LEVEL) =         7
 MAXIMUM NUMBER OF ORTHOGONALIZATIONS  (NORTH) =         7
 INDEX FOR USING REDUCED SYSTEM      (IREDSYS) =         1
 RESID. REDUCTION CONVERGE CRITERION  (RRCTOL) =  0.000000E+00
 INDEX FOR USING DROP TOLERANCE     (IDROPTOL) =         1
 DROP TOLERANCE VALUE                  (EPSRN) =  0.500000E-02
 CONVERGENCE CRITERIA OF           (HCLOSEXMD) =  0.100000E-03
 MAX. NUMBER OF LINEAR ITERATIONS  (MXITERXMD) =        50


 UPW1 -- UPSTREAM WEIGHTING FLOW PACKAGE, VERSION 1.1.4, 4/01/2018
         INPUT READ FROM UNIT  7

 #Layer-Property Flow Package input for test simulation 2
 CELL-BY-CELL FLOWS WILL BE SAVED ON UNIT  102
 No named parameters

   LAYER FLAGS:
 LAYER       LAYTYP          LAYAVG    CHANI           LAYVKA           LAYWET
 ---------------------------------------------------------------------------
    1             1             0     1.000E+00             0             0

   INTERPRETATION OF LAYER FLAGS:
                        INTERBLOCK     HORIZONTAL    DATA IN
         LAYER TYPE   TRANSMISSIVITY   ANISOTROPY   ARRAY VKA   WETTABILITY
 LAYER   (LAYTYP)        (LAYAVG)      (CHANI)     (LAYVKA)       (LAYWET)
 ---------------------------------------------------------------------------
    1   CONVERTIBLE      HARMONIC     1.000E+00    VERTICAL K  NON-WETTABLE



              HYD. COND. ALONG ROWS FOR LAYER   1
 READING ON UNIT    7 WITH FORMAT: (10F5.0)            

            1           2           3           4           5           6           7           8           9          10
 ........................................................................................................................
   1   2.0000E-03  2.0000E-03   0.000       0.000       0.000       0.000       0.000       0.000       0.000       0.000    
   2   4.0000E-04  2.0000E-03  2.0000E-03   0.000       0.000      4.0000E-04  4.0000E-04  4.0000E-04   0.000       0.000    
   3    0.000      4.0000E-04  2.0000E-03  2.0000E-03  4.0000E-04  4.0000E-04  4.0000E-04  4.0000E-04   0.000       0.000    
   4   4.0000E-04  4.0000E-04  4.0000E-04  2.0000E-03  2.0000E-03  2.0000E-03  4.0000E-04  4.0000E-04  4.0000E-04   0.000    
   5   4.0000E-04  4.0000E-04  4.0000E-04  2.0000E-03  2.0000E-03  2.0000E-03  2.0000E-03  2.0000E-03  2.0000E-03  2.0000E-03
   6   4.0000E-04  4.0000E-04  4.0000E-04  2.0000E-03  2.0000E-03  2.0000E-03  2.0000E-03  2.0000E-03  4.0000E-04  4.0000E-04
   7   4.0000E-04  4.0000E-04  4.0000E-04  2.0000E-03  2.0000E-03  2.0000E-03  2.0000E-03  2.0000E-03  4.0000E-04   0.000    
   8    0.000      4.0000E-04  4.0000E-04  2.0000E-03  2.0000E-03  2.0000E-03  2.0000E-03  4.0000E-04  4.0000E-04   0.000    
   9    0.000      4.0000E-04  4.0000E-04  2.0000E-03  2.0000E-03  2.0000E-03  2.0000E-03  4.0000E-04  4.0000E-04   0.000    
  10    0.000      4.0000E-04  4.0000E-04  2.0000E-03  2.0000E-03  2.0000E-03  2.0000E-03  4.0000E-04  4.0000E-04  4.0000E-04
  11    0.000      4.0000E-04  4.0000E-04  2.0000E-03  2.0000E-03  2.0000E-03  2.0000E-03  4.0000E-04  4.0000E-04   0.000    
  12   4.0000E-04  4.0000E-04  2.0000E-03  2.0000E-03  2.0000E-03  2.0000E-03  2.0000E-03  4.0000E-04  4.0000E-04   0.000    
  13   2.0000E-03  2.0000E-03  2.0000E-03  2.0000E-03  2.0000E-03  2.0000E-03  2.0000E-03  2.0000E-03  2.0000E-03   0.000    
  14    0.000      4.0000E-04  4.0000E-04  4.0000E-04  4.0000E-04  4.0000E-04  4.0000E-04  4.0000E-04  2.0000E-03   0.000    
  15    0.000       0.000      4.0000E-04  4.0000E-04  4.0000E-04  4.0000E-04   0.000       0.000       0.000       0.000    

      VERTICAL HYD. COND. =  1.000000E-06 FOR LAYER   1

         SPECIFIC STORAGE =  1.000000E-06 FOR LAYER   1



                     SPECIFIC YIELD FOR LAYER   1
 READING ON UNIT    7 WITH FORMAT: (10F5.0)            

            1           2           3           4           5           6           7           8           9          10
 ........................................................................................................................
   1   0.2000      0.2000       0.000       0.000       0.000       0.000       0.000       0.000       0.000       0.000    
   2   0.1000      0.2000      0.2000       0.000       0.000      0.1000      0.1000      0.1000       0.000       0.000    
   3    0.000      0.1000      0.2000      0.2000      0.1000      0.1000      0.1000      0.1000       0.000       0.000    
   4   0.1000      0.1000      0.1000      0.2000      0.2000      0.2000      0.1000      0.1000      0.1000       0.000    
   5   0.1000      0.1000      0.1000      0.2000      0.2000      0.2000      0.2000      0.2000      0.2000      0.2000    
   6   0.1000      0.1000      0.1000      0.2000      0.2000      0.2000      0.2000      0.2000      0.1000      0.1000    
   7   0.1000      0.1000      0.1000      0.2000      0.2000      0.2000      0.2000      0.2000      0.1000       0.000    
   8    0.000      0.1000      0.1000      0.2000      0.2000      0.2000      0.2000      0.1000      0.1000       0.000    
   9    0.000      0.1000      0.1000      0.2000      0.2000      0.2000      0.2000      0.1000      0.1000       0.000    
  10    0.000      0.1000      0.1000      0.2000      0.2000      0.2000      0.2000      0.1000      0.1000      0.1000    
  11    0.000      0.1000      0.1000      0.2000      0.2000      0.2000      0.2000      0.1000      0.1000       0.000    
  12   0.1000      0.1000      0.2000      0.2000      0.2000      0.2000      0.2000      0.1000      0.1000       0.000    
  13   0.2000      0.2000      0.2000      0.2000      0.2000      0.2000      0.2000      0.2000      0.2000       0.000    
  14    0.000      0.1000      0.1000      0.1000      0.1000      0.1000      0.1000      0.1000      0.2000       0.000    
  15    0.000       0.000      0.1000      0.1000      0.1000      0.1000       0.000       0.000       0.000       0.000    

 GHB -- GENERAL-HEAD BOUNDARY PACKAGE, VERSION 7, 5/2/2005
         INPUT READ FROM UNIT   17
 No named parameters
 MAXIMUM OF      2 ACTIVE GHB CELLS AT ONE TIME
 CELL-BY-CELL FLOWS WILL BE PRINTED WHEN ICBCFL NOT 0


     0 GHB parameters

 SFR7 -- STREAMFLOW ROUTING PACKAGE, VERSION 1.0.5, 2012-04-05
         INPUT READ FROM UNIT  15
 #SFR2 Package input for Testing supplimental pumping and irrigation
 No named parameters

 PROCESSING SFR2 OPTIONS
 
          1 Specified inflow files will be read with a maximum of        759 row entries per file
 
Stream loss will be calculated as a factor of the streambed hydraulic conductivity. Multiplication factor is equal to     0.1000000015E+00

 END PROCESSING SFR2 OPTIONS
 


 NUMBER OF STREAM REACHES IS   36

 NUMBER OF STREAM SEGMENTS IS    8

 NUMBER OF STREAM PARAMETERS IS    0

 NUMBER OF STREAM SEGMENTS DEFINED USING PARAMETERS IS              0

 MAXIMUM ERROR FOR STREAM LEAKAGE RATES IS  1.00E-06

 CONSTANT FOR MANNINGS EQUATION IS  1.4860E+00



 STREAM OUTPUT WILL BE WRITTEN TO FILE ON UNIT   81


   STREAM NETWORK DESCRIPTION: 

   LAYER    ROW    COL   SEGMENT   REACH     LENGTH
                          NUMBER   NUMBER    IN CELL        
   --------------------------------------------------
      1      1      1       1        1    4.5000E+03
      1      2      2       1        2    7.0000E+03
      1      3      3       1        3    6.0000E+03
      1      3      4       1        4    5.5500E+03
      1      4      5       2        1    6.5000E+03
      1      5      6       2        2    5.0000E+03
      1      6      6       2        3    5.0000E+03
      1      7      6       2        4    5.0000E+03
      1      8      6       2        5    5.0000E+03
      1      3      5       3        1    5.0000E+03
      1      3      6       3        2    5.0000E+03
      1      3      7       3        3    4.5000E+03
      1      4      8       3        4    6.0000E+03
      1      5      8       3        5    5.0000E+03
      1      6      8       3        6    2.0000E+03
      1      5     10       4        1    2.5000E+03
      1      5      9       4        2    5.0000E+03
      1      6      8       4        3    3.5000E+03
      1      6      8       5        1    4.0000E+03
      1      7      7       5        2    5.0000E+03
      1      8      7       5        3    3.5000E+03
      1      8      6       5        4    2.5000E+03
      1      9      6       6        1    5.0000E+03
      1     10      7       6        2    5.0000E+03
      1     11      7       6        3    5.0000E+03
      1     12      7       6        4    5.0000E+03
      1     13      7       6        5    2.0000E+03
      1     14      9       7        1    5.0000E+03
      1     13      8       7        2    5.5000E+03
      1     13      7       7        3    5.0000E+03
      1     13      6       8        1    5.0000E+03
      1     13      5       8        2    5.0000E+03
      1     13      4       8        3    5.0000E+03
      1     13      3       8        4    5.0000E+03
      1     13      2       8        5    5.0000E+03
      1     13      1       8        6    3.0000E+03




 UZF1 -- UNSATURATED FLOW PACKAGE, VERSION 1.5, 09/10/2019
         INPUT READ FROM UNIT 19
 #UZF Package input for test simulation 2
 No named parameters

 PROCESSING UZF OPTIONS
 
 
 INITIAL WATER CONTENT (THTI) WILL BE 
READ FOR THE FIRST SS OR TR STRESS PERIOD
 
 
 RESIDUAL WATER CONTENT (THTR) WILL BE 
READ AND USED FOR THE FIRST TRANSIENT STRESS 
PERIOD
 
 
AIR ENTRY PRESSURE AND ROOT PRESSURE WILL BE 
SPECIFIED BY USER AND UZ ET WILL BE SIMULATED 
AS PRESSURE-HEAD DEPENDENT
 
 
INFILTRATION WILL BE REJECTED USING 
LAND SURFACE K
 
 
HYDRAULIC CONDUCTIVITY OF LAND SURFACE 
WILL BE READ
 

 END PROCESSING UZF OPTIONS



            AREAL EXTENT OF UZ FLOW
 READING ON UNIT   19 WITH FORMAT: (20I4)              

                1           2           3           4           5           6           7           8           9          10
 ............................................................................................................................
   1            1           1           0           0           0           0           0           0           0           0
   2            1           1           1           0           0           1           1           1           0           0
   3            0           1           1           1           1           1           1           1           0           0
   4            1           1           1           1           1           1           1           1           1           0
   5            1           1           1           1           1           1           1           1           1           1
   6            1           1           1           1           1           1           1           1           1           1
   7            1           1           1           1           1           1           1           1           1           0
   8            0           1           1           1           1           1           1           1           1           0
   9            0           1           1           1           1           1           1           1           1           0
  10            0           1           1           1           1           1           1           1           1           1
  11            0           1           1           1           1           1           1           1           1           0
  12            1           1           1           1           1           1           1           1           1           0
  13            1           1           1           1           1           1           1           1           1           0
  14            0           1           1           1           1           1           1           1           1           0
  15            0           0           1           1           1           1           0           0           0           0
 OPTION 1 -- RECHARGE IN UZF TO TOP LAYER ONLY 



            ROUTING OVERLAND RUNOFF
 READING ON UNIT   19 WITH FORMAT: (20I4)              

                1           2           3           4           5           6           7           8           9          10
 ............................................................................................................................
   1            1           1           0           0           0           0           0           0           0           0
   2            1           1           1           0           0           3           3           3           0           0
   3            0           1           1           1           3           3           3           3           0           0
   4            8           8           2           2           2           2           2           3           3           0
   5            8           8           8           8           2           2           2           3           4           4
   6            8           8           8           8           8           2           2           4           4           4
   7            8           8           8           8           8           2           5           5           5           0
   8            0           8           8           8           8           2           5           5           5           0
   9            0           8           8           8           8           6           6           6           6           0
  10            0           8           8           8           8           6           6           6           6           6
  11            0           8           8           8           8           8           6           6           7           0
  12            8           8           8           8           8           8           6           7           7           0
  13            8           8           8           8           8           8           7           7           7           0
  14            0           8           8           8           8           8           7           7           7           0
  15            0           0           8           8           8           8           0           0           0           0



               SATURATED VERTICAL K
 READING ON UNIT   19 WITH FORMAT: (10F4.0)            

            1           2           3           4           5           6           7           8           9          10
 ........................................................................................................................
   1   1.0000E-04  1.0000E-04   0.000       0.000       0.000       0.000       0.000       0.000       0.000       0.000    
   2   1.0000E-04  1.0000E-04  1.0000E-04   0.000       0.000      1.0000E-04  1.0000E-04  1.0000E-04   0.000       0.000    
   3    0.000      1.0000E-04  1.0000E-04  1.0000E-04  1.0000E-04  1.0000E-04  1.0000E-04  1.0000E-04   0.000       0.000    
   4   1.0000E-04  1.0000E-04  1.0000E-04  1.0000E-04  1.0000E-04  1.0000E-04  1.0000E-04  1.0000E-04  1.0000E-04   0.000    
   5   1.0000E-04  1.0000E-04  1.0000E-04  1.0000E-04  1.0000E-04  1.0000E-04  1.0000E-04  1.0000E-04  1.0000E-04  1.0000E-04
   6   1.0000E-04  1.0000E-04  1.0000E-04  1.0000E-04  1.0000E-04  1.0000E-04  1.0000E-04  1.0000E-04  1.0000E-04  1.0000E-04
   7   1.0000E-04  1.0000E-04  1.0000E-04  1.0000E-04  1.0000E-04  1.0000E-04  1.0000E-04  1.0000E-04  1.0000E-04   0.000    
   8    0.000      1.0000E-04  1.0000E-04  1.0000E-04  1.0000E-04  1.0000E-04  1.0000E-04  1.0000E-04  1.0000E-04   0.000    
   9    0.000      1.0000E-04  1.0000E-04  1.0000E-04  1.0000E-04  1.0000E-04  1.0000E-04  1.0000E-04  1.0000E-04   0.000    
  10    0.000      1.0000E-04  1.0000E-04  1.0000E-04  1.0000E-04  1.0000E-04  1.0000E-04  1.0000E-04  1.0000E-04  1.0000E-04
  11    0.000      1.0000E-04  1.0000E-04  1.0000E-04  1.0000E-04  1.0000E-04  1.0000E-04  1.0000E-04  1.0000E-04   0.000    
  12   1.0000E-04  1.0000E-04  1.0000E-04  1.0000E-04  1.0000E-04  1.0000E-04  1.0000E-04  1.0000E-04  1.0000E-04   0.000    
  13   1.0000E-04  1.0000E-04  1.0000E-04  1.0000E-04  1.0000E-04  1.0000E-04  1.0000E-04  1.0000E-04  1.0000E-04   0.000    
  14    0.000      1.0000E-04  1.0000E-04  1.0000E-04  1.0000E-04  1.0000E-04  1.0000E-04  1.0000E-04  1.0000E-04   0.000    
  15    0.000       0.000      1.0000E-04  1.0000E-04  1.0000E-04  1.0000E-04   0.000       0.000       0.000       0.000    



            LAND SURFACE VERTICAL K
 READING ON UNIT   19 WITH FORMAT: (10F4.0)            

            1           2           3           4           5           6           7           8           9          10
 ........................................................................................................................
   1   1.0000E-05  1.0000E-05   0.000       0.000       0.000       0.000       0.000       0.000       0.000       0.000    
   2   1.0000E-05  1.0000E-05  1.0000E-05   0.000       0.000      1.0000E-05  1.0000E-05  1.0000E-05   0.000       0.000    
   3    0.000      1.0000E-05  1.0000E-05  1.0000E-05  1.0000E-05  1.0000E-05  1.0000E-05  1.0000E-05   0.000       0.000    
   4   1.0000E-05  1.0000E-05  1.0000E-05  1.0000E-05  1.0000E-05  1.0000E-05  1.0000E-05  1.0000E-05  1.0000E-05   0.000    
   5   1.0000E-05  1.0000E-05  1.0000E-05  1.0000E-05  1.0000E-05  1.0000E-05  1.0000E-05  1.0000E-05  1.0000E-05  1.0000E-05
   6   1.0000E-05  1.0000E-05  1.0000E-05  1.0000E-05  1.0000E-05  1.0000E-05  1.0000E-05  1.0000E-05  1.0000E-05  1.0000E-05
   7   1.0000E-05  1.0000E-05  1.0000E-05  1.0000E-05  1.0000E-05  1.0000E-05  1.0000E-05  1.0000E-05  1.0000E-05   0.000    
   8    0.000      1.0000E-05  1.0000E-05  1.0000E-05  1.0000E-05  1.0000E-05  1.0000E-05  1.0000E-05  1.0000E-05   0.000    
   9    0.000      1.0000E-05  1.0000E-05  1.0000E-05  1.0000E-05  1.0000E-05  1.0000E-05  1.0000E-05  1.0000E-05   0.000    
  10    0.000      1.0000E-05  1.0000E-05  1.0000E-05  1.0000E-05  1.0000E-05  1.0000E-05  1.0000E-05  1.0000E-05  1.0000E-05
  11    0.000      1.0000E-05  1.0000E-05  1.0000E-05  1.0000E-05  1.0000E-05  1.0000E-05  1.0000E-05  1.0000E-05   0.000    
  12   1.0000E-05  1.0000E-05  1.0000E-05  1.0000E-05  1.0000E-05  1.0000E-05  1.0000E-05  1.0000E-05  1.0000E-05   0.000    
  13   1.0000E-05  1.0000E-05  1.0000E-05  1.0000E-05  1.0000E-05  1.0000E-05  1.0000E-05  1.0000E-05  1.0000E-05   0.000    
  14    0.000      1.0000E-05  1.0000E-05  1.0000E-05  1.0000E-05  1.0000E-05  1.0000E-05  1.0000E-05  1.0000E-05   0.000    
  15    0.000       0.000      1.0000E-05  1.0000E-05  1.0000E-05  1.0000E-05   0.000       0.000       0.000       0.000    

     BROOKS-COREY EPSILON =   4.50000    

  SATURATED WATER CONTENT =  0.300000    

   RESIDUAL WATER CONTENT =  8.000000E-02

    INITIAL WATER CONTENT =  8.000000E-02

UNSATURATED FLOW RESULTS WILL BE PRINTED TO SEPARATE FILES FOR SELECTED MODEL CELLS, AND TIME STEPS AS DEFINED BY OUTPUT CONTROL PACKAGE 

SELECTED MODEL CELLS ARE: 
 ROW NUMBER  COLUMN NUMBER  FORTRAN UNIT NUMBER  OUTPUT OPTION


       6             4                 65                 1
       6             5                 66                 2
       8             4                 67                 3
       0             0                 68                 4



   8 GAGING STATIONS WERE SPECIFIED.
     (Lakes are identified by a negative value of the Lake Number)
     RECORDS WILL BE WRITTEN TO SEPARATE OUTPUT FILES REPRESENTED BY FOLLOWING UNIT NUMBERS:

 Stream Gages:
  GAGE #   SEGMENT   REACH   UNIT   OUTTYPE
       1       1       4      83       1
       2       2       3      84       1
       3       3       5      85       1
       4       4       3      86       1
       5       5       4      87       4
       6       6       5      88       4
       7       7       3      89       4
       8       8       6      90       4





 AG -- AG PACKAGE FOR NWT VERSION 1.2.0,  3/03/2020 INPUT READ FROM UNIT   57
 # AG options

 PROCESSING AG OPTIONS
 
 AGRICULTURAL DEMANDS WILL BE CALCULATED USING ET DEFICIT
 
 
 OPTION TO APPLY PUMPED WATER AS IRRIGATION IS ACTIVE. PUMPED IRRIGATION WATER WILL BE APPLIED TO          6 CELLS/RHUS.
 
 
 THE MAXIMUM NUMBER OF WELLS FOR SUPPLEMENTING DIVERSIONS OR APPLYING IRRIGATION IS          6 WELLS.
 
 
  UNFORMATTED CELL BY CELL RATES FOR SUP AND IRR WELLS WILL BE SAVED TO FILE UNIT NUMBER         -2
 
 
  UNFORMATTED CELL BY CELL RATES FOR SUP AND IRR WELLS WILL BE SAVED TO FILE UNIT NUMBER         -2
 
 
  GROUND WATER IRRIGATION, POTENTIAL AND ACTUAL ET WILL BE SAVED TO TIMES SERIES OUTPUT FILES.
 
 
  GROUND WATER IRRIGATION, POTENTIAL AND ACTUAL ET WILL BE SAVED TO TIMES SERIES OUTPUT FILES.
 

 END PROCESSING AG OPTIONS
 # AG time series

 PROCESSING TIME SERIES

 FINISHED READING TIME SERIES
 A total number of          0 AG output time series files were activated for SURFACE WATER 
 A total number of          2 AG output time series files were activated for GROUNDWATER 
 A total number of          0 AG output time series files were activated for SURFACE WATER ET
 A total number of          2 AG output time series files were activated for GROUNDWATER ET
 A total number of          0 AG output time series files were activated for POND ET
 A total number of          0 AG output time series files were activated for POND IRRIGATION
1
                            STRESS PERIOD NO.    1, LENGTH =   86400.00    
                            -----------------------------------------------

                              NUMBER OF TIME STEPS =     1

                               MULTIPLIER FOR DELT =     1.000

                            INITIAL TIME STEP SIZE =   86400.00    

 BOUND. NO. LAYER   ROW   COL     STAGE      CONDUCTANCE         
 ----------------------------------------------------------------
      1      1     13      1       988.0          0.3800E-01
      2      1     14      9       1045.          0.3800E-01

      2 GHB CELLS



 CLASSIFICATION & COUNT OF STREAM SEGMENTS BASED ON SOURCE OF INFLOW:

                HEADWATER     DIVERSION     RECEIVES TRIBUTARY FLOW
                ---------     ---------     -----------------------
                     3              1               4



                    INPUT DATA FOR EACH STREAM SEGMENT
 ---------------------------------------------------------------------------------------------

 SEGMENT    SEG.     INFLOW   OVERLAND   STREAM    STREAM   ICALC  OUTFLOW  DIVERSION PRIORITY
    NO.    LENGTH     RATE     RUNOFF      ET       PPT.    METH.  TO SEG.  FROM SEG.    NO.

      1  2.305E+04 2.500E+01 0.000E+00 0.000E+00 0.000E+00    4        2        0        0
      2  2.650E+04 0.000E+00 0.000E+00 0.000E+00 0.000E+00    1        6        0        0
      3  2.750E+04 2.000E+00 0.000E+00 0.000E+00 0.000E+00    0        5        1        0
      4  1.100E+04 1.000E+01 0.000E+00 0.000E+00 0.000E+00    1        5        0        0
      5  1.500E+04 0.000E+00 0.000E+00 0.000E+00 0.000E+00    3        6        0        0
      6  2.200E+04 0.000E+00 0.000E+00 0.000E+00 0.000E+00    1        8        0        0
      7  1.550E+04 1.500E+02 0.000E+00 0.000E+00 0.000E+00    2        8        0        0
      8  2.800E+04 0.000E+00 0.000E+00 0.000E+00 0.000E+00    2        0        0        0


         STREAMBED PROPERTIES AND STREAM DIMENSIONS

 SEGMENT     BED HYD. COND.      BED THICKNESS     ELEV.-TOP OF BED     WIDTH OF STREAM     DEPTH OF STREAM    STREAM ROUGHNESS
    No.     UPPER     LOWER     UPPER     LOWER     UPPER     LOWER     UPPER     LOWER     UPPER     LOWER   CHANNEL      BANK

     1  3.000E-05 3.000E-05 3.000E+00 3.000E+00 1.095E+03 1.075E+03
     2  3.000E-05 3.000E-05 3.000E+00 3.000E+00 1.075E+03 1.050E+03 1.200E+01 1.200E+01                     3.000E-02
     3  3.000E-05 3.000E-05 2.000E+00 2.000E+00 1.075E+03 1.060E+03 1.000E+01 6.000E+00 2.000E+00 1.000E+00
     4  3.000E-05 3.000E-05 3.000E+00 3.000E+00 1.080E+03 1.060E+03 1.000E+01 1.000E+01                     3.000E-02
     5  3.000E-05 3.000E-05 3.000E+00 3.000E+00 1.060E+03 1.045E+03
     6  3.000E-05 3.000E-05 3.000E+00 3.000E+00 1.045E+03 1.025E+03 1.200E+01 1.200E+01                     3.000E-02
     7  6.000E-05 6.000E-05 3.000E+00 3.000E+00 1.040E+03 1.025E+03                                         2.500E-02 4.500E-02
     8  6.000E-05 6.000E-05 3.000E+00 3.000E+00 1.025E+03 9.900E+02                                         2.500E-02 4.500E-02

  EIGHT POINT CROSS-SECTION DATA FOR SEGMENTS WITH ICALC = 2
    X VALUES X VALUES START FROM LEFT SIDE LOOKING DOWNSTREAM

     SEGMENT NO.        X1        X2        X3        X4        X5        X6        X7        X8
            7      0.000E+00 1.000E+01 8.000E+01 1.000E+02 1.500E+02 1.700E+02 2.400E+02 2.500E+02
            8      0.000E+00 1.000E+01 8.000E+01 1.000E+02 1.500E+02 1.700E+02 2.400E+02 2.500E+02

    Z VALUES ARE RELATIVE TO STREAMBED ELEVATION

     SEGMENT NO.          Z1        Z2        Z3        Z4        Z5        Z6        Z7        Z8
            7      2.000E+01 1.300E+01 1.000E+01 2.000E+00 0.000E+00 1.000E+01 1.300E+01 2.000E+01
            8      2.500E+01 1.700E+01 1.300E+01 4.000E+00 0.000E+00 1.000E+01 1.600E+01 2.000E+01

 STREAMFLOW RELATION WITH DEPTH IS BASED ON EQUATION Q = CDPTH*(DEPTH)**FDPTH
 STREAMFLOW RELATION WITH WIDTH IS BASED ON EQUATION Q = AWDTH*(WIDTH)**BWDTH

 SEGMENT NO.      CDPTH     FDPTH    AWDTH     BWDTH

          5 3.000E-01 3.500E-01 3.800E+00 6.000E-01

 STREAMFLOW RELATION WITH DEPTH AND WIDTH IS BASED ON TABULATED VALUES

  SEGMENT NO.   STREAMFLOW       DEPTH       WIDTH

          1     5.0000E-01   2.5000E-01   3.0000E+00
          1     1.0000E+00   4.0000E-01   3.5000E+00
          1     2.0000E+00   5.5000E-01   4.2000E+00
          1     4.0000E+00   7.0000E-01   5.3000E+00
          1     7.0000E+00   8.0000E-01   7.0000E+00
          1     1.0000E+01   9.0000E-01   8.5000E+00
          1     2.0000E+01   1.1000E+00   1.2000E+01
          1     3.0000E+01   1.2500E+00   1.4000E+01
          1     5.0000E+01   1.4000E+00   1.7000E+01
          1     7.5000E+01   1.7000E+00   2.0000E+01
          1     1.0000E+02   1.8000E+00   2.2000E+01



TABULAR INFLOWS WERE READ FOR SEGMENT      1
FROM FILE UNIT NUMBER     55

          TIMES                    INFLOWS
         0.0000000000E+00     0.5000000000E+01
         0.8640000000E+05     0.2200000000E+02
         0.2760000000E+07     0.4200000000E+02
         0.5270000000E+07     0.7700000000E+02
         0.7950000000E+07     0.2800000000E+02
         0.1050000000E+08     0.9900000000E+02
         0.1320000000E+08     0.8300000000E+02
         0.1580000000E+08     0.7500000000E+02
         0.1850000000E+08     0.6100000000E+02
         0.2120000000E+08     0.4700000000E+02
         0.2380000000E+08     0.3500000000E+02
         0.2640000000E+08     0.2600000000E+02
         0.2900000000E+08     0.2300000000E+02
         0.3170000000E+08     0.1900000000E+02
         0.3440000000E+08     0.2100000000E+02
         0.3680000000E+08     0.9800000000E+02
         0.3950000000E+08     0.7500000000E+02
         0.4210000000E+08     0.6300000000E+02
         0.4480000000E+08     0.5800000000E+02
         0.4730000000E+08     0.5400000000E+02
         0.5000000000E+08     0.3700000000E+02
         0.5270000000E+08     0.2500000000E+02
         0.5530000000E+08     0.2200000000E+02
         0.5800000000E+08     0.2100000000E+02
         0.6060000000E+08     0.2000000000E+02
         0.6320000000E+08     0.1900000000E+02



            AREAL INFILTRATION RATE
 READING ON UNIT   19 WITH FORMAT: (10F4.0)            

            1           2           3           4           5           6           7           8           9          10
 ........................................................................................................................
   1   1.0000E-10  2.0000E-10   0.000       0.000       0.000       0.000       0.000       0.000       0.000       0.000    
   2   2.0000E-10  1.0000E-10  2.0000E-10   0.000       0.000      8.0000E-10  8.0000E-10  5.0000E-10   0.000       0.000    
   3    0.000      5.0000E-10  1.0000E-10  1.0000E-10  8.0000E-10  8.0000E-10  5.0000E-10  5.0000E-10   0.000       0.000    
   4   8.0000E-10  5.0000E-10  1.0000E-10  1.0000E-10  1.0000E-10  1.0000E-10  1.0000E-10  1.0000E-10  2.0000E-10   0.000    
   5   8.0000E-10  5.0000E-10  1.0000E-10  1.0000E-10  1.0000E-10  1.0000E-10  1.0000E-10  1.0000E-10  1.0000E-10  1.0000E-10
   6   8.0000E-10  5.0000E-10  5.0000E-10  2.0000E-10  2.0000E-10  1.0000E-10  1.0000E-10  1.0000E-10  1.0000E-10  5.0000E-10
   7   8.0000E-10  5.0000E-10  5.0000E-10  2.0000E-10  2.0000E-10  1.0000E-10  1.0000E-10  2.0000E-10  2.0000E-10   0.000    
   8    0.000      5.0000E-10  5.0000E-10  2.0000E-10  2.0000E-10  1.0000E-10  1.0000E-10  2.0000E-10  5.0000E-10   0.000    
   9    0.000      5.0000E-10  5.0000E-10  2.0000E-10  2.0000E-10  1.0000E-10  1.0000E-10  2.0000E-10  5.0000E-10   0.000    
  10    0.000      5.0000E-10  5.0000E-10  2.0000E-10  2.0000E-10  1.0000E-10  1.0000E-10  2.0000E-10  5.0000E-10  8.0000E-10
  11    0.000      1.0000E-10  1.0000E-10  1.0000E-10  1.0000E-10  1.0000E-10  1.0000E-10  2.0000E-10  5.0000E-10   0.000    
  12   1.0000E-10  1.0000E-10  1.0000E-10  1.0000E-10  1.0000E-10  1.0000E-10  1.0000E-10  1.0000E-10  2.0000E-10   0.000    
  13   1.0000E-10  1.0000E-10  2.0000E-10  2.0000E-10  2.0000E-10  2.0000E-10  2.0000E-10  1.0000E-10  1.0000E-10   0.000    
  14    0.000      2.0000E-10  5.0000E-10  5.0000E-10  5.0000E-10  5.0000E-10  5.0000E-10  2.0000E-10  1.0000E-10   0.000    
  15    0.000       0.000      8.0000E-10  8.0000E-10  8.0000E-10  8.0000E-10   0.000       0.000       0.000       0.000    

                  ET RATE =  1.000000E-08

      ET EXTINCTION DEPTH =  0.500000    

 EXTINCTION WATER CONTENT =  8.000000E-02

EXTINCTION WATER CONTENT FOR CELL AT ROW     1, COLUMN     1 IS LESS THAN RESIDUAL WATER CONTENT-- SETTING EXTINCTION WATER CONTENT EQUAL TO RESIDUAL WATER CONTENT

EXTINCTION WATER CONTENT FOR CELL AT ROW     1, COLUMN     2 IS LESS THAN RESIDUAL WATER CONTENT-- SETTING EXTINCTION WATER CONTENT EQUAL TO RESIDUAL WATER CONTENT

EXTINCTION WATER CONTENT FOR CELL AT ROW     2, COLUMN     1 IS LESS THAN RESIDUAL WATER CONTENT-- SETTING EXTINCTION WATER CONTENT EQUAL TO RESIDUAL WATER CONTENT

EXTINCTION WATER CONTENT FOR CELL AT ROW     2, COLUMN     2 IS LESS THAN RESIDUAL WATER CONTENT-- SETTING EXTINCTION WATER CONTENT EQUAL TO RESIDUAL WATER CONTENT

EXTINCTION WATER CONTENT FOR CELL AT ROW     2, COLUMN     3 IS LESS THAN RESIDUAL WATER CONTENT-- SETTING EXTINCTION WATER CONTENT EQUAL TO RESIDUAL WATER CONTENT

EXTINCTION WATER CONTENT FOR CELL AT ROW     2, COLUMN     6 IS LESS THAN RESIDUAL WATER CONTENT-- SETTING EXTINCTION WATER CONTENT EQUAL TO RESIDUAL WATER CONTENT

EXTINCTION WATER CONTENT FOR CELL AT ROW     2, COLUMN     7 IS LESS THAN RESIDUAL WATER CONTENT-- SETTING EXTINCTION WATER CONTENT EQUAL TO RESIDUAL WATER CONTENT

EXTINCTION WATER CONTENT FOR CELL AT ROW     2, COLUMN     8 IS LESS THAN RESIDUAL WATER CONTENT-- SETTING EXTINCTION WATER CONTENT EQUAL TO RESIDUAL WATER CONTENT

EXTINCTION WATER CONTENT FOR CELL AT ROW     3, COLUMN     2 IS LESS THAN RESIDUAL WATER CONTENT-- SETTING EXTINCTION WATER CONTENT EQUAL TO RESIDUAL WATER CONTENT

EXTINCTION WATER CONTENT FOR CELL AT ROW     3, COLUMN     3 IS LESS THAN RESIDUAL WATER CONTENT-- SETTING EXTINCTION WATER CONTENT EQUAL TO RESIDUAL WATER CONTENT

EXTINCTION WATER CONTENT FOR CELL AT ROW     3, COLUMN     4 IS LESS THAN RESIDUAL WATER CONTENT-- SETTING EXTINCTION WATER CONTENT EQUAL TO RESIDUAL WATER CONTENT

EXTINCTION WATER CONTENT FOR CELL AT ROW     3, COLUMN     5 IS LESS THAN RESIDUAL WATER CONTENT-- SETTING EXTINCTION WATER CONTENT EQUAL TO RESIDUAL WATER CONTENT

EXTINCTION WATER CONTENT FOR CELL AT ROW     3, COLUMN     6 IS LESS THAN RESIDUAL WATER CONTENT-- SETTING EXTINCTION WATER CONTENT EQUAL TO RESIDUAL WATER CONTENT

EXTINCTION WATER CONTENT FOR CELL AT ROW     3, COLUMN     7 IS LESS THAN RESIDUAL WATER CONTENT-- SETTING EXTINCTION WATER CONTENT EQUAL TO RESIDUAL WATER CONTENT

EXTINCTION WATER CONTENT FOR CELL AT ROW     3, COLUMN     8 IS LESS THAN RESIDUAL WATER CONTENT-- SETTING EXTINCTION WATER CONTENT EQUAL TO RESIDUAL WATER CONTENT

EXTINCTION WATER CONTENT FOR CELL AT ROW     4, COLUMN     1 IS LESS THAN RESIDUAL WATER CONTENT-- SETTING EXTINCTION WATER CONTENT EQUAL TO RESIDUAL WATER CONTENT

EXTINCTION WATER CONTENT FOR CELL AT ROW     4, COLUMN     2 IS LESS THAN RESIDUAL WATER CONTENT-- SETTING EXTINCTION WATER CONTENT EQUAL TO RESIDUAL WATER CONTENT

EXTINCTION WATER CONTENT FOR CELL AT ROW     4, COLUMN     3 IS LESS THAN RESIDUAL WATER CONTENT-- SETTING EXTINCTION WATER CONTENT EQUAL TO RESIDUAL WATER CONTENT

EXTINCTION WATER CONTENT FOR CELL AT ROW     4, COLUMN     4 IS LESS THAN RESIDUAL WATER CONTENT-- SETTING EXTINCTION WATER CONTENT EQUAL TO RESIDUAL WATER CONTENT

EXTINCTION WATER CONTENT FOR CELL AT ROW     4, COLUMN     5 IS LESS THAN RESIDUAL WATER CONTENT-- SETTING EXTINCTION WATER CONTENT EQUAL TO RESIDUAL WATER CONTENT

EXTINCTION WATER CONTENT FOR CELL AT ROW     4, COLUMN     6 IS LESS THAN RESIDUAL WATER CONTENT-- SETTING EXTINCTION WATER CONTENT EQUAL TO RESIDUAL WATER CONTENT

EXTINCTION WATER CONTENT FOR CELL AT ROW     4, COLUMN     7 IS LESS THAN RESIDUAL WATER CONTENT-- SETTING EXTINCTION WATER CONTENT EQUAL TO RESIDUAL WATER CONTENT

EXTINCTION WATER CONTENT FOR CELL AT ROW     4, COLUMN     8 IS LESS THAN RESIDUAL WATER CONTENT-- SETTING EXTINCTION WATER CONTENT EQUAL TO RESIDUAL WATER CONTENT

EXTINCTION WATER CONTENT FOR CELL AT ROW     4, COLUMN     9 IS LESS THAN RESIDUAL WATER CONTENT-- SETTING EXTINCTION WATER CONTENT EQUAL TO RESIDUAL WATER CONTENT

EXTINCTION WATER CONTENT FOR CELL AT ROW     5, COLUMN     1 IS LESS THAN RESIDUAL WATER CONTENT-- SETTING EXTINCTION WATER CONTENT EQUAL TO RESIDUAL WATER CONTENT

EXTINCTION WATER CONTENT FOR CELL AT ROW     5, COLUMN     2 IS LESS THAN RESIDUAL WATER CONTENT-- SETTING EXTINCTION WATER CONTENT EQUAL TO RESIDUAL WATER CONTENT

EXTINCTION WATER CONTENT FOR CELL AT ROW     5, COLUMN     3 IS LESS THAN RESIDUAL WATER CONTENT-- SETTING EXTINCTION WATER CONTENT EQUAL TO RESIDUAL WATER CONTENT

EXTINCTION WATER CONTENT FOR CELL AT ROW     5, COLUMN     4 IS LESS THAN RESIDUAL WATER CONTENT-- SETTING EXTINCTION WATER CONTENT EQUAL TO RESIDUAL WATER CONTENT

EXTINCTION WATER CONTENT FOR CELL AT ROW     5, COLUMN     5 IS LESS THAN RESIDUAL WATER CONTENT-- SETTING EXTINCTION WATER CONTENT EQUAL TO RESIDUAL WATER CONTENT

EXTINCTION WATER CONTENT FOR CELL AT ROW     5, COLUMN     6 IS LESS THAN RESIDUAL WATER CONTENT-- SETTING EXTINCTION WATER CONTENT EQUAL TO RESIDUAL WATER CONTENT

EXTINCTION WATER CONTENT FOR CELL AT ROW     5, COLUMN     7 IS LESS THAN RESIDUAL WATER CONTENT-- SETTING EXTINCTION WATER CONTENT EQUAL TO RESIDUAL WATER CONTENT

EXTINCTION WATER CONTENT FOR CELL AT ROW     5, COLUMN     8 IS LESS THAN RESIDUAL WATER CONTENT-- SETTING EXTINCTION WATER CONTENT EQUAL TO RESIDUAL WATER CONTENT

EXTINCTION WATER CONTENT FOR CELL AT ROW     5, COLUMN     9 IS LESS THAN RESIDUAL WATER CONTENT-- SETTING EXTINCTION WATER CONTENT EQUAL TO RESIDUAL WATER CONTENT

EXTINCTION WATER CONTENT FOR CELL AT ROW     5, COLUMN    10 IS LESS THAN RESIDUAL WATER CONTENT-- SETTING EXTINCTION WATER CONTENT EQUAL TO RESIDUAL WATER CONTENT

EXTINCTION WATER CONTENT FOR CELL AT ROW     6, COLUMN     1 IS LESS THAN RESIDUAL WATER CONTENT-- SETTING EXTINCTION WATER CONTENT EQUAL TO RESIDUAL WATER CONTENT

EXTINCTION WATER CONTENT FOR CELL AT ROW     6, COLUMN     2 IS LESS THAN RESIDUAL WATER CONTENT-- SETTING EXTINCTION WATER CONTENT EQUAL TO RESIDUAL WATER CONTENT

EXTINCTION WATER CONTENT FOR CELL AT ROW     6, COLUMN     3 IS LESS THAN RESIDUAL WATER CONTENT-- SETTING EXTINCTION WATER CONTENT EQUAL TO RESIDUAL WATER CONTENT

EXTINCTION WATER CONTENT FOR CELL AT ROW     6, COLUMN     4 IS LESS THAN RESIDUAL WATER CONTENT-- SETTING EXTINCTION WATER CONTENT EQUAL TO RESIDUAL WATER CONTENT

EXTINCTION WATER CONTENT FOR CELL AT ROW     6, COLUMN     5 IS LESS THAN RESIDUAL WATER CONTENT-- SETTING EXTINCTION WATER CONTENT EQUAL TO RESIDUAL WATER CONTENT

EXTINCTION WATER CONTENT FOR CELL AT ROW     6, COLUMN     6 IS LESS THAN RESIDUAL WATER CONTENT-- SETTING EXTINCTION WATER CONTENT EQUAL TO RESIDUAL WATER CONTENT

EXTINCTION WATER CONTENT FOR CELL AT ROW     6, COLUMN     7 IS LESS THAN RESIDUAL WATER CONTENT-- SETTING EXTINCTION WATER CONTENT EQUAL TO RESIDUAL WATER CONTENT

EXTINCTION WATER CONTENT FOR CELL AT ROW     6, COLUMN     8 IS LESS THAN RESIDUAL WATER CONTENT-- SETTING EXTINCTION WATER CONTENT EQUAL TO RESIDUAL WATER CONTENT

EXTINCTION WATER CONTENT FOR CELL AT ROW     6, COLUMN     9 IS LESS THAN RESIDUAL WATER CONTENT-- SETTING EXTINCTION WATER CONTENT EQUAL TO RESIDUAL WATER CONTENT

EXTINCTION WATER CONTENT FOR CELL AT ROW     6, COLUMN    10 IS LESS THAN RESIDUAL WATER CONTENT-- SETTING EXTINCTION WATER CONTENT EQUAL TO RESIDUAL WATER CONTENT

EXTINCTION WATER CONTENT FOR CELL AT ROW     7, COLUMN     1 IS LESS THAN RESIDUAL WATER CONTENT-- SETTING EXTINCTION WATER CONTENT EQUAL TO RESIDUAL WATER CONTENT

EXTINCTION WATER CONTENT FOR CELL AT ROW     7, COLUMN     2 IS LESS THAN RESIDUAL WATER CONTENT-- SETTING EXTINCTION WATER CONTENT EQUAL TO RESIDUAL WATER CONTENT

EXTINCTION WATER CONTENT FOR CELL AT ROW     7, COLUMN     3 IS LESS THAN RESIDUAL WATER CONTENT-- SETTING EXTINCTION WATER CONTENT EQUAL TO RESIDUAL WATER CONTENT

EXTINCTION WATER CONTENT FOR CELL AT ROW     7, COLUMN     4 IS LESS THAN RESIDUAL WATER CONTENT-- SETTING EXTINCTION WATER CONTENT EQUAL TO RESIDUAL WATER CONTENT

EXTINCTION WATER CONTENT FOR CELL AT ROW     7, COLUMN     5 IS LESS THAN RESIDUAL WATER CONTENT-- SETTING EXTINCTION WATER CONTENT EQUAL TO RESIDUAL WATER CONTENT

EXTINCTION WATER CONTENT FOR CELL AT ROW     7, COLUMN     6 IS LESS THAN RESIDUAL WATER CONTENT-- SETTING EXTINCTION WATER CONTENT EQUAL TO RESIDUAL WATER CONTENT

EXTINCTION WATER CONTENT FOR CELL AT ROW     7, COLUMN     7 IS LESS THAN RESIDUAL WATER CONTENT-- SETTING EXTINCTION WATER CONTENT EQUAL TO RESIDUAL WATER CONTENT

EXTINCTION WATER CONTENT FOR CELL AT ROW     7, COLUMN     8 IS LESS THAN RESIDUAL WATER CONTENT-- SETTING EXTINCTION WATER CONTENT EQUAL TO RESIDUAL WATER CONTENT

EXTINCTION WATER CONTENT FOR CELL AT ROW     7, COLUMN     9 IS LESS THAN RESIDUAL WATER CONTENT-- SETTING EXTINCTION WATER CONTENT EQUAL TO RESIDUAL WATER CONTENT

EXTINCTION WATER CONTENT FOR CELL AT ROW     8, COLUMN     2 IS LESS THAN RESIDUAL WATER CONTENT-- SETTING EXTINCTION WATER CONTENT EQUAL TO RESIDUAL WATER CONTENT

EXTINCTION WATER CONTENT FOR CELL AT ROW     8, COLUMN     3 IS LESS THAN RESIDUAL WATER CONTENT-- SETTING EXTINCTION WATER CONTENT EQUAL TO RESIDUAL WATER CONTENT

EXTINCTION WATER CONTENT FOR CELL AT ROW     8, COLUMN     4 IS LESS THAN RESIDUAL WATER CONTENT-- SETTING EXTINCTION WATER CONTENT EQUAL TO RESIDUAL WATER CONTENT

EXTINCTION WATER CONTENT FOR CELL AT ROW     8, COLUMN     5 IS LESS THAN RESIDUAL WATER CONTENT-- SETTING EXTINCTION WATER CONTENT EQUAL TO RESIDUAL WATER CONTENT

EXTINCTION WATER CONTENT FOR CELL AT ROW     8, COLUMN     6 IS LESS THAN RESIDUAL WATER CONTENT-- SETTING EXTINCTION WATER CONTENT EQUAL TO RESIDUAL WATER CONTENT

EXTINCTION WATER CONTENT FOR CELL AT ROW     8, COLUMN     7 IS LESS THAN RESIDUAL WATER CONTENT-- SETTING EXTINCTION WATER CONTENT EQUAL TO RESIDUAL WATER CONTENT

EXTINCTION WATER CONTENT FOR CELL AT ROW     8, COLUMN     8 IS LESS THAN RESIDUAL WATER CONTENT-- SETTING EXTINCTION WATER CONTENT EQUAL TO RESIDUAL WATER CONTENT

EXTINCTION WATER CONTENT FOR CELL AT ROW     8, COLUMN     9 IS LESS THAN RESIDUAL WATER CONTENT-- SETTING EXTINCTION WATER CONTENT EQUAL TO RESIDUAL WATER CONTENT

EXTINCTION WATER CONTENT FOR CELL AT ROW     9, COLUMN     2 IS LESS THAN RESIDUAL WATER CONTENT-- SETTING EXTINCTION WATER CONTENT EQUAL TO RESIDUAL WATER CONTENT

EXTINCTION WATER CONTENT FOR CELL AT ROW     9, COLUMN     3 IS LESS THAN RESIDUAL WATER CONTENT-- SETTING EXTINCTION WATER CONTENT EQUAL TO RESIDUAL WATER CONTENT

EXTINCTION WATER CONTENT FOR CELL AT ROW     9, COLUMN     4 IS LESS THAN RESIDUAL WATER CONTENT-- SETTING EXTINCTION WATER CONTENT EQUAL TO RESIDUAL WATER CONTENT

EXTINCTION WATER CONTENT FOR CELL AT ROW     9, COLUMN     5 IS LESS THAN RESIDUAL WATER CONTENT-- SETTING EXTINCTION WATER CONTENT EQUAL TO RESIDUAL WATER CONTENT

EXTINCTION WATER CONTENT FOR CELL AT ROW     9, COLUMN     6 IS LESS THAN RESIDUAL WATER CONTENT-- SETTING EXTINCTION WATER CONTENT EQUAL TO RESIDUAL WATER CONTENT

EXTINCTION WATER CONTENT FOR CELL AT ROW     9, COLUMN     7 IS LESS THAN RESIDUAL WATER CONTENT-- SETTING EXTINCTION WATER CONTENT EQUAL TO RESIDUAL WATER CONTENT

EXTINCTION WATER CONTENT FOR CELL AT ROW     9, COLUMN     8 IS LESS THAN RESIDUAL WATER CONTENT-- SETTING EXTINCTION WATER CONTENT EQUAL TO RESIDUAL WATER CONTENT

EXTINCTION WATER CONTENT FOR CELL AT ROW     9, COLUMN     9 IS LESS THAN RESIDUAL WATER CONTENT-- SETTING EXTINCTION WATER CONTENT EQUAL TO RESIDUAL WATER CONTENT

EXTINCTION WATER CONTENT FOR CELL AT ROW    10, COLUMN     2 IS LESS THAN RESIDUAL WATER CONTENT-- SETTING EXTINCTION WATER CONTENT EQUAL TO RESIDUAL WATER CONTENT

EXTINCTION WATER CONTENT FOR CELL AT ROW    10, COLUMN     3 IS LESS THAN RESIDUAL WATER CONTENT-- SETTING EXTINCTION WATER CONTENT EQUAL TO RESIDUAL WATER CONTENT

EXTINCTION WATER CONTENT FOR CELL AT ROW    10, COLUMN     4 IS LESS THAN RESIDUAL WATER CONTENT-- SETTING EXTINCTION WATER CONTENT EQUAL TO RESIDUAL WATER CONTENT

EXTINCTION WATER CONTENT FOR CELL AT ROW    10, COLUMN     5 IS LESS THAN RESIDUAL WATER CONTENT-- SETTING EXTINCTION WATER CONTENT EQUAL TO RESIDUAL WATER CONTENT

EXTINCTION WATER CONTENT FOR CELL AT ROW    10, COLUMN     6 IS LESS THAN RESIDUAL WATER CONTENT-- SETTING EXTINCTION WATER CONTENT EQUAL TO RESIDUAL WATER CONTENT

EXTINCTION WATER CONTENT FOR CELL AT ROW    10, COLUMN     7 IS LESS THAN RESIDUAL WATER CONTENT-- SETTING EXTINCTION WATER CONTENT EQUAL TO RESIDUAL WATER CONTENT

EXTINCTION WATER CONTENT FOR CELL AT ROW    10, COLUMN     8 IS LESS THAN RESIDUAL WATER CONTENT-- SETTING EXTINCTION WATER CONTENT EQUAL TO RESIDUAL WATER CONTENT

EXTINCTION WATER CONTENT FOR CELL AT ROW    10, COLUMN     9 IS LESS THAN RESIDUAL WATER CONTENT-- SETTING EXTINCTION WATER CONTENT EQUAL TO RESIDUAL WATER CONTENT

EXTINCTION WATER CONTENT FOR CELL AT ROW    10, COLUMN    10 IS LESS THAN RESIDUAL WATER CONTENT-- SETTING EXTINCTION WATER CONTENT EQUAL TO RESIDUAL WATER CONTENT

EXTINCTION WATER CONTENT FOR CELL AT ROW    11, COLUMN     2 IS LESS THAN RESIDUAL WATER CONTENT-- SETTING EXTINCTION WATER CONTENT EQUAL TO RESIDUAL WATER CONTENT

EXTINCTION WATER CONTENT FOR CELL AT ROW    11, COLUMN     3 IS LESS THAN RESIDUAL WATER CONTENT-- SETTING EXTINCTION WATER CONTENT EQUAL TO RESIDUAL WATER CONTENT

EXTINCTION WATER CONTENT FOR CELL AT ROW    11, COLUMN     4 IS LESS THAN RESIDUAL WATER CONTENT-- SETTING EXTINCTION WATER CONTENT EQUAL TO RESIDUAL WATER CONTENT

EXTINCTION WATER CONTENT FOR CELL AT ROW    11, COLUMN     5 IS LESS THAN RESIDUAL WATER CONTENT-- SETTING EXTINCTION WATER CONTENT EQUAL TO RESIDUAL WATER CONTENT

EXTINCTION WATER CONTENT FOR CELL AT ROW    11, COLUMN     6 IS LESS THAN RESIDUAL WATER CONTENT-- SETTING EXTINCTION WATER CONTENT EQUAL TO RESIDUAL WATER CONTENT

EXTINCTION WATER CONTENT FOR CELL AT ROW    11, COLUMN     7 IS LESS THAN RESIDUAL WATER CONTENT-- SETTING EXTINCTION WATER CONTENT EQUAL TO RESIDUAL WATER CONTENT

EXTINCTION WATER CONTENT FOR CELL AT ROW    11, COLUMN     8 IS LESS THAN RESIDUAL WATER CONTENT-- SETTING EXTINCTION WATER CONTENT EQUAL TO RESIDUAL WATER CONTENT

EXTINCTION WATER CONTENT FOR CELL AT ROW    11, COLUMN     9 IS LESS THAN RESIDUAL WATER CONTENT-- SETTING EXTINCTION WATER CONTENT EQUAL TO RESIDUAL WATER CONTENT

EXTINCTION WATER CONTENT FOR CELL AT ROW    12, COLUMN     1 IS LESS THAN RESIDUAL WATER CONTENT-- SETTING EXTINCTION WATER CONTENT EQUAL TO RESIDUAL WATER CONTENT

EXTINCTION WATER CONTENT FOR CELL AT ROW    12, COLUMN     2 IS LESS THAN RESIDUAL WATER CONTENT-- SETTING EXTINCTION WATER CONTENT EQUAL TO RESIDUAL WATER CONTENT

EXTINCTION WATER CONTENT FOR CELL AT ROW    12, COLUMN     3 IS LESS THAN RESIDUAL WATER CONTENT-- SETTING EXTINCTION WATER CONTENT EQUAL TO RESIDUAL WATER CONTENT

EXTINCTION WATER CONTENT FOR CELL AT ROW    12, COLUMN     4 IS LESS THAN RESIDUAL WATER CONTENT-- SETTING EXTINCTION WATER CONTENT EQUAL TO RESIDUAL WATER CONTENT

EXTINCTION WATER CONTENT FOR CELL AT ROW    12, COLUMN     5 IS LESS THAN RESIDUAL WATER CONTENT-- SETTING EXTINCTION WATER CONTENT EQUAL TO RESIDUAL WATER CONTENT

EXTINCTION WATER CONTENT FOR CELL AT ROW    12, COLUMN     6 IS LESS THAN RESIDUAL WATER CONTENT-- SETTING EXTINCTION WATER CONTENT EQUAL TO RESIDUAL WATER CONTENT

EXTINCTION WATER CONTENT FOR CELL AT ROW    12, COLUMN     7 IS LESS THAN RESIDUAL WATER CONTENT-- SETTING EXTINCTION WATER CONTENT EQUAL TO RESIDUAL WATER CONTENT

EXTINCTION WATER CONTENT FOR CELL AT ROW    12, COLUMN     8 IS LESS THAN RESIDUAL WATER CONTENT-- SETTING EXTINCTION WATER CONTENT EQUAL TO RESIDUAL WATER CONTENT

EXTINCTION WATER CONTENT FOR CELL AT ROW    12, COLUMN     9 IS LESS THAN RESIDUAL WATER CONTENT-- SETTING EXTINCTION WATER CONTENT EQUAL TO RESIDUAL WATER CONTENT

EXTINCTION WATER CONTENT FOR CELL AT ROW    13, COLUMN     1 IS LESS THAN RESIDUAL WATER CONTENT-- SETTING EXTINCTION WATER CONTENT EQUAL TO RESIDUAL WATER CONTENT

EXTINCTION WATER CONTENT FOR CELL AT ROW    13, COLUMN     2 IS LESS THAN RESIDUAL WATER CONTENT-- SETTING EXTINCTION WATER CONTENT EQUAL TO RESIDUAL WATER CONTENT

EXTINCTION WATER CONTENT FOR CELL AT ROW    13, COLUMN     3 IS LESS THAN RESIDUAL WATER CONTENT-- SETTING EXTINCTION WATER CONTENT EQUAL TO RESIDUAL WATER CONTENT

EXTINCTION WATER CONTENT FOR CELL AT ROW    13, COLUMN     4 IS LESS THAN RESIDUAL WATER CONTENT-- SETTING EXTINCTION WATER CONTENT EQUAL TO RESIDUAL WATER CONTENT

EXTINCTION WATER CONTENT FOR CELL AT ROW    13, COLUMN     5 IS LESS THAN RESIDUAL WATER CONTENT-- SETTING EXTINCTION WATER CONTENT EQUAL TO RESIDUAL WATER CONTENT

EXTINCTION WATER CONTENT FOR CELL AT ROW    13, COLUMN     6 IS LESS THAN RESIDUAL WATER CONTENT-- SETTING EXTINCTION WATER CONTENT EQUAL TO RESIDUAL WATER CONTENT

EXTINCTION WATER CONTENT FOR CELL AT ROW    13, COLUMN     7 IS LESS THAN RESIDUAL WATER CONTENT-- SETTING EXTINCTION WATER CONTENT EQUAL TO RESIDUAL WATER CONTENT

EXTINCTION WATER CONTENT FOR CELL AT ROW    13, COLUMN     8 IS LESS THAN RESIDUAL WATER CONTENT-- SETTING EXTINCTION WATER CONTENT EQUAL TO RESIDUAL WATER CONTENT

EXTINCTION WATER CONTENT FOR CELL AT ROW    13, COLUMN     9 IS LESS THAN RESIDUAL WATER CONTENT-- SETTING EXTINCTION WATER CONTENT EQUAL TO RESIDUAL WATER CONTENT

EXTINCTION WATER CONTENT FOR CELL AT ROW    14, COLUMN     2 IS LESS THAN RESIDUAL WATER CONTENT-- SETTING EXTINCTION WATER CONTENT EQUAL TO RESIDUAL WATER CONTENT

EXTINCTION WATER CONTENT FOR CELL AT ROW    14, COLUMN     3 IS LESS THAN RESIDUAL WATER CONTENT-- SETTING EXTINCTION WATER CONTENT EQUAL TO RESIDUAL WATER CONTENT

EXTINCTION WATER CONTENT FOR CELL AT ROW    14, COLUMN     4 IS LESS THAN RESIDUAL WATER CONTENT-- SETTING EXTINCTION WATER CONTENT EQUAL TO RESIDUAL WATER CONTENT

EXTINCTION WATER CONTENT FOR CELL AT ROW    14, COLUMN     5 IS LESS THAN RESIDUAL WATER CONTENT-- SETTING EXTINCTION WATER CONTENT EQUAL TO RESIDUAL WATER CONTENT

EXTINCTION WATER CONTENT FOR CELL AT ROW    14, COLUMN     6 IS LESS THAN RESIDUAL WATER CONTENT-- SETTING EXTINCTION WATER CONTENT EQUAL TO RESIDUAL WATER CONTENT

EXTINCTION WATER CONTENT FOR CELL AT ROW    14, COLUMN     7 IS LESS THAN RESIDUAL WATER CONTENT-- SETTING EXTINCTION WATER CONTENT EQUAL TO RESIDUAL WATER CONTENT

EXTINCTION WATER CONTENT FOR CELL AT ROW    14, COLUMN     8 IS LESS THAN RESIDUAL WATER CONTENT-- SETTING EXTINCTION WATER CONTENT EQUAL TO RESIDUAL WATER CONTENT

EXTINCTION WATER CONTENT FOR CELL AT ROW    14, COLUMN     9 IS LESS THAN RESIDUAL WATER CONTENT-- SETTING EXTINCTION WATER CONTENT EQUAL TO RESIDUAL WATER CONTENT

EXTINCTION WATER CONTENT FOR CELL AT ROW    15, COLUMN     3 IS LESS THAN RESIDUAL WATER CONTENT-- SETTING EXTINCTION WATER CONTENT EQUAL TO RESIDUAL WATER CONTENT

EXTINCTION WATER CONTENT FOR CELL AT ROW    15, COLUMN     4 IS LESS THAN RESIDUAL WATER CONTENT-- SETTING EXTINCTION WATER CONTENT EQUAL TO RESIDUAL WATER CONTENT

EXTINCTION WATER CONTENT FOR CELL AT ROW    15, COLUMN     5 IS LESS THAN RESIDUAL WATER CONTENT-- SETTING EXTINCTION WATER CONTENT EQUAL TO RESIDUAL WATER CONTENT

EXTINCTION WATER CONTENT FOR CELL AT ROW    15, COLUMN     6 IS LESS THAN RESIDUAL WATER CONTENT-- SETTING EXTINCTION WATER CONTENT EQUAL TO RESIDUAL WATER CONTENT

       AIR ENTRY PRESSURE = -0.100000    

            ROOT PRESSURE =  -30.0000    

            ROOT ACTIVITY =   1.00000    
 # AG well list

 PROCESSING WELL LIST

 LAYER   ROW   COL   MAX STRESS RATE         
 --------------------------------------------
      1      1      6      4     -0.1000E+05
      2      1      6      5     -0.1000E+05
      3      1      7      4     -0.1000E+05
      4      1      7      5     -0.1000E+05
      5      1      8      4     -0.1000E+05
      6      1      8      5     -0.1000E+05

 FINISHED READING WELL LIST

      6 WELLS

 PROCESSING AG STRESS PERIOD DATA
 # AG stress period

 READING AG STRESS PERIOD DATA

 READING IRRIGATION WELL

 NO IRRPOND OR REUSING IRRPOND DATA FROM LAST STRESS PERIOD

 END PROCESSING AG STRESS PERIOD DATA OPTIONS
 
 SOLVING FOR HEAD 
                                                   Max.-Head-Change                         Max.-Flux-Residual
  Residual-Control   Outer-Iter.   Inner-Iter.     Column Row Layer    Maximum-Head-Change  Column Row Layer    Maximum-Flux-Residual          L2-NORM 
          0                 1           6             2    2     1      -0.2729307464E+02       3    3    1        -0.3343270791E+01      0.9349602267E+01
          0                 2           6             1    1     1      -0.3190965431E+02       1   13    1        -0.1265339377E+03      0.1266532531E+03
          0                 3           6             1    1     1      -0.1572491758E+01       6   13    1        -0.2190257661E+01      0.4309170804E+01
          0                 4           5             5   13     1      -0.1413305767E+00       5   13    1        -0.2948450322E+00      0.3673593282E+00
          0                 5           4             5   14     1       0.3029532125E-01       5   13    1         0.1459713171E-01      0.2406408108E-01
          0                 6           2             5   14     1      -0.1189305026E-02       5   13    1        -0.5824503583E-03      0.1629880055E-02
          0                 7           1             5   14     1       0.1315585614E-04       7   10    1         0.2182523667E-04      0.6323665714E-04

    ------------------------------------------------
       NWT REQUIRED            7 OUTER ITERATIONS 
       AND A TOTAL OF         30 INNER ITERATIONS.
    ------------------------------------------------

 OUTPUT CONTROL FOR STRESS PERIOD    1   TIME STEP    1
    PRINT BUDGET
    SAVE BUDGET
    SAVE HEAD FOR ALL LAYERS
 UBDSV2 SAVING "   CONSTANT HEAD" ON UNIT 102 AT TIME STEP 1, STRESS PERIOD 1
 UBDSV1 SAVING "FLOW RIGHT FACE " ON UNIT 102 AT TIME STEP 1, STRESS PERIOD 1
 UBDSV1 SAVING "FLOW FRONT FACE " ON UNIT 102 AT TIME STEP 1, STRESS PERIOD 1

  HEAD DEP BOUNDS   PERIOD    1   STEP     1
 BOUNDARY      1   LAYER   1   ROW    13   COL     1   RATE   -0.287309    
 BOUNDARY      2   LAYER   1   ROW    14   COL     9   RATE    0.285356    



 STREAM LISTING     PERIOD      1   STEP        1

 LAYER ROW COL. STREAM  RCH.  FLOW INTO     FLOW TO   FLOW OUT OF   OVRLND.     DIRECT     STREAM       STREAM     STREAM     STREAM   STREAMBED  STREAMBED
                SEG.NO.  NO.  STRM. RCH.    AQUIFER    STRM. RCH.    RUNOFF     PRECIP       ET          HEAD       DEPTH      WIDTH   CONDCTNC.   GRADIENT

   1    1    1     1     1    5.0000E+00  9.9080E-02   4.9009E+00  0.000E+00  0.000E+00  0.000E+00  1.09378E+03  7.365E-01  5.893E+00  2.652E-02  1.246E+00
   1    2    2     1     2    4.9009E+00  1.5199E-01   4.7489E+00  0.000E+00  0.000E+00  0.000E+00  1.08879E+03  7.320E-01  5.818E+00  4.072E-02  1.244E+00
   1    3    3     1     3    4.7489E+00  1.2820E-01   4.6207E+00  0.000E+00  0.000E+00  0.000E+00  1.08315E+03  7.269E-01  5.733E+00  3.440E-02  1.242E+00
   1    3    4     1     4    4.6207E+00  1.1689E-01   4.5038E+00  0.000E+00  0.000E+00  0.000E+00  1.07813E+03  7.223E-01  5.658E+00  3.140E-02  1.241E+00
   1    4    5     2     1    2.5038E+00  2.5694E-01   2.2469E+00  0.000E+00  0.000E+00  0.000E+00  1.07223E+03  2.942E-01  1.200E+01  7.800E-02  1.098E+00
   1    5    6     2     2    2.2469E+00  1.9662E-01   2.0503E+00  0.000E+00  0.000E+00  0.000E+00  1.06679E+03  2.770E-01  1.200E+01  6.000E-02  1.092E+00
   1    6    6     2     3    2.0503E+00  1.9569E-01   1.8546E+00  0.000E+00  0.000E+00  0.000E+00  1.06205E+03  2.615E-01  1.200E+01  6.000E-02  1.087E+00
   1    7    6     2     4    1.8546E+00  1.9473E-01   1.6599E+00  0.000E+00  0.000E+00  0.000E+00  1.05732E+03  2.455E-01  1.200E+01  6.000E-02  1.082E+00
   1    8    6     2     5    1.6599E+00  1.9373E-01   1.4661E+00  0.000E+00  0.000E+00  0.000E+00  1.05259E+03  2.288E-01  1.200E+01  6.000E-02  1.076E+00
   1    3    5     3     1    2.0000E+00  2.8252E-01   1.7175E+00  0.000E+00  0.000E+00  0.000E+00  1.07555E+03  1.909E+00  9.636E+00  7.227E-02  1.955E+00
   1    3    6     3     2    1.7175E+00  2.4905E-01   1.4684E+00  0.000E+00  0.000E+00  0.000E+00  1.07264E+03  1.727E+00  8.909E+00  6.682E-02  1.864E+00
   1    3    7     3     3    1.4684E+00  1.9718E-01   1.2712E+00  0.000E+00  0.000E+00  0.000E+00  1.06987E+03  1.555E+00  8.218E+00  5.547E-02  1.777E+00
   1    4    8     3     4    1.2712E+00  2.2567E-01   1.0456E+00  0.000E+00  0.000E+00  0.000E+00  1.06682E+03  1.364E+00  7.455E+00  6.709E-02  1.682E+00
   1    5    8     3     5    1.0456E+00  1.5790E-01   8.8768E-01  0.000E+00  0.000E+00  0.000E+00  1.06362E+03  1.164E+00  6.655E+00  4.991E-02  1.582E+00
   1    6    8     3     6    8.8768E-01  5.5980E-02   8.3170E-01  0.000E+00  0.000E+00  0.000E+00  1.06158E+03  1.036E+00  6.145E+00  1.844E-02  1.518E+00
   1    5   10     4     1    1.0000E+01  9.0919E-02   9.9091E+00  0.000E+00  0.000E+00  0.000E+00  1.07836E+03  6.368E-01  1.000E+01  2.500E-02  1.212E+00
   1    5    9     4     2    9.9091E+00  1.8158E-01   9.7275E+00  0.000E+00  0.000E+00  0.000E+00  1.07154E+03  6.315E-01  1.000E+01  5.000E-02  1.211E+00
   1    6    8     4     3    9.7275E+00  1.2689E-01   9.6006E+00  0.000E+00  0.000E+00  0.000E+00  1.06381E+03  6.256E-01  1.000E+01  3.500E-02  1.209E+00
   1    6    8     5     1    1.0432E+01  2.2686E-01   1.0205E+01  0.000E+00  0.000E+00  0.000E+00  1.05868E+03  6.790E-01  1.542E+01  6.166E-02  1.226E+00
   1    7    7     5     2    1.0205E+01  2.7894E-01   9.9265E+00  0.000E+00  0.000E+00  0.000E+00  1.05417E+03  6.732E-01  1.519E+01  7.594E-02  1.224E+00
   1    8    7     5     3    9.9265E+00  1.9221E-01   9.7343E+00  0.000E+00  0.000E+00  0.000E+00  1.04992E+03  6.676E-01  1.497E+01  5.241E-02  1.223E+00
   1    8    6     5     4    9.7343E+00  1.3577E-01   9.5985E+00  0.000E+00  0.000E+00  0.000E+00  1.04691E+03  6.637E-01  1.482E+01  3.706E-02  1.221E+00
   1    9    6     6     1    1.1065E+01  2.2465E-01   1.0840E+01  0.000E+00  0.000E+00  0.000E+00  1.04347E+03  7.442E-01  1.200E+01  6.000E-02  1.248E+00
   1   10    7     6     2    1.0840E+01  2.2410E-01   1.0616E+01  0.000E+00  0.000E+00  0.000E+00  1.03892E+03  7.350E-01  1.200E+01  6.000E-02  1.245E+00
   1   11    7     6     3    1.0616E+01  2.2354E-01   1.0392E+01  0.000E+00  0.000E+00  0.000E+00  1.03436E+03  7.257E-01  1.200E+01  6.000E-02  1.242E+00
   1   12    7     6     4    1.0392E+01  2.2299E-01   1.0169E+01  0.000E+00  0.000E+00  0.000E+00  1.02981E+03  7.165E-01  1.200E+01  6.000E-02  1.239E+00
   1   13    7     6     5    1.0169E+01 -1.0974E-01   1.0279E+01  0.000E+00  0.000E+00  0.000E+00  1.02662E+03  7.141E-01  1.200E+01  2.400E-01 -1.524E-01
   1   14    9     7     1    1.5000E+02  1.3299E+00   1.4867E+02  0.000E+00  0.000E+00  0.000E+00  1.03987E+03  2.288E+00  5.529E+01  5.593E-01  7.926E-01
   1   13    8     7     2    1.4867E+02  1.8245E+00   1.4685E+02  0.000E+00  0.000E+00  0.000E+00  1.03478E+03  2.279E+00  5.526E+01  6.148E-01  9.892E-01
   1   13    7     7     3    1.4685E+02  1.4573E+00   1.4539E+02  0.000E+00  0.000E+00  0.000E+00  1.02969E+03  2.271E+00  5.522E+01  5.585E-01  8.698E-01
   1   13    6     8     1    1.5567E+02  8.1890E-01   1.5485E+02  0.000E+00  0.000E+00  0.000E+00  1.02473E+03  2.853E+00  4.138E+01  4.216E-01  6.474E-01
   1   13    5     8     2    1.5485E+02  9.0639E-02   1.5476E+02  0.000E+00  0.000E+00  0.000E+00  1.01848E+03  2.850E+00  4.133E+01  4.212E-01  7.174E-02
   1   13    4     8     3    1.5476E+02 -2.7168E+00   1.5747E+02  0.000E+00  0.000E+00  0.000E+00  1.01223E+03  2.859E+00  4.146E+01  4.225E+00 -2.143E-01
   1   13    3     8     4    1.5747E+02 -3.7756E+00   1.6125E+02  0.000E+00  0.000E+00  0.000E+00  1.00601E+03  2.882E+00  4.178E+01  4.258E+00 -2.956E-01
   1   13    2     8     5    1.6125E+02 -2.6098E+00   1.6386E+02  0.000E+00  0.000E+00  0.000E+00  9.99778E+02  2.903E+00  4.209E+01  4.290E+00 -2.028E-01
   1   13    1     8     6    1.6386E+02 -1.9855E+00   1.6585E+02  0.000E+00  0.000E+00  0.000E+00  9.94793E+02  2.918E+00  4.232E+01  2.587E+00 -2.558E-01



 UBDSV3 SAVING "           GW ET" ON UNIT  61 AT TIME STEP 1, STRESS PERIOD 1
 UBDSV3 SAVING "    UZF RECHARGE" ON UNIT  61 AT TIME STEP 1, STRESS PERIOD 1
 UBDSV3 SAVING " SURFACE LEAKAGE" ON UNIT  61 AT TIME STEP 1, STRESS PERIOD 1
 UBDSV3 SAVING "       HORT+DUNN" ON UNIT  61 AT TIME STEP 1, STRESS PERIOD 1
 UBDSV3 SAVING "  STORAGE CHANGE" ON UNIT  61 AT TIME STEP 1, STRESS PERIOD 1


UNSATURATED ZONE PACKAGE VOLUMETRIC BUDGET FOR  TIME STEP     1 STRESS PERIOD    1
  ------------------------------------------------------------------------------



     CUMULATIVE VOLUMES      L**3       RATES FOR THIS TIME STEP      L**3/T
     ------------------                 ------------------------

           IN:                                      IN:
           ---                                      ---
        INFILTRATION =       73224.0000          INFILTRATION =           0.8475

          OUT:                                     OUT:
          ----                                     ----
              UZF ET =       0.0000E+00                UZF ET =       0.0000E+00
        UZF RECHARGE =       73224.0000          UZF RECHARGE =           0.8475

            IN - OUT =       0.0000E+00              IN - OUT =       0.0000E+00

          STORAGE:                                 STORAGE:
          --------                                 --------
      STORAGE CHANGE =       0.0000E+00        STORAGE CHANGE =       0.0000E+00

 PERCENT DISCREPANCY IS DIFFERENCE BETWEEN IN-OUT MINUS CHANGE IN STORAGE
 DIVIDED BY THE AVERAGE OF IN AND OUT TIMES 100

 PERCENT DISCREPANCY =           0.00     PERCENT DISCREPANCY =           0.00






 

            AG WELLS      PERIOD    1   STEP   1
 AG WELL      1   LAYER   1   ROW     6   COL     4   RATE     0.00000    
 AG WELL      2   LAYER   1   ROW     6   COL     5   RATE     0.00000    
 AG WELL      3   LAYER   1   ROW     7   COL     4   RATE     0.00000    
 AG WELL      4   LAYER   1   ROW     7   COL     5   RATE     0.00000    
 AG WELL      5   LAYER   1   ROW     8   COL     4   RATE     0.00000    
 AG WELL      6   LAYER   1   ROW     8   COL     5   RATE     0.00000    
 
 

        GW IRRIGATION     PERIOD    1   STEP   1
 
1
  VOLUMETRIC BUDGET FOR AGRICULTURAL FIELDS AT  END OF TIME STEP    1, STRESS PERIOD   1
  ------------------------------------------------------------------------------

     CUMULATIVE VOLUMES      L**3       RATES FOR THIS TIME STEP      L**3/T
     ------------------                 ------------------------

           IN:                                      IN:
           ---                                      ---
               AG WELLS  =           0.0000                 AG WELLS  =           0.0000
      DIVERSION SEGMENTS =           0.0000        DIVERSION SEGMENTS =           0.0000
       IRRIGATION PONDS  =           0.0000         IRRIGATION PONDS  =           0.0000
           GW IRRIGATION =           0.0000             GW IRRIGATION =           0.0000
           SW IRRIGATION =           0.0000             SW IRRIGATION =           0.0000
        SYSTEM LOSSES GW =           0.0000          SYSTEM LOSSES GW =           0.0000
        SYSTEM LOSSES SW =           0.0000          SYSTEM LOSSES SW =           0.0000

                TOTAL IN =           0.0000                  TOTAL IN =           0.0000

          OUT:                                     OUT:
          ----                                     ----
               AG WELLS  =           0.0000                 AG WELLS  =           0.0000
      DIVERSION SEGMENTS =           0.0000        DIVERSION SEGMENTS =           0.0000
       IRRIGATION PONDS  =           0.0000         IRRIGATION PONDS  =           0.0000
           GW IRRIGATION =           0.0000             GW IRRIGATION =           0.0000
           SW IRRIGATION =           0.0000             SW IRRIGATION =           0.0000
        SYSTEM LOSSES GW =           0.0000          SYSTEM LOSSES GW =           0.0000
        SYSTEM LOSSES SW =           0.0000          SYSTEM LOSSES SW =           0.0000

               TOTAL OUT =           0.0000                 TOTAL OUT =           0.0000

                IN - OUT =           0.0000                  IN - OUT =           0.0000

     PERCENT DISCREPANCY =           0.00         PERCENT DISCREPANCY =           0.00




 HEAD WILL BE SAVED ON UNIT   62 AT END OF TIME STEP    1, STRESS PERIOD    1
1
  VOLUMETRIC BUDGET FOR ENTIRE MODEL AT END OF TIME STEP    1, STRESS PERIOD   1
  ------------------------------------------------------------------------------

     CUMULATIVE VOLUMES      L**3       RATES FOR THIS TIME STEP      L**3/T
     ------------------                 ------------------------

           IN:                                      IN:
           ---                                      ---
             STORAGE     =           0.0000               STORAGE     =           0.0000
       CONSTANT HEAD     =           0.0000         CONSTANT HEAD     =           0.0000
     HEAD DEP BOUNDS     =       24654.7383       HEAD DEP BOUNDS     =           0.2854
      STREAM LEAKAGE     =      894399.3125        STREAM LEAKAGE     =          10.3518
        UZF RECHARGE     =       73223.9531          UZF RECHARGE     =           0.8475
               GW ET     =           0.0000                 GW ET     =           0.0000
     SURFACE LEAKAGE     =           0.0000       SURFACE LEAKAGE     =           0.0000
           AG WELLS      =           0.0000             AG WELLS      =           0.0000

                TOTAL IN =      992278.0000                  TOTAL IN =          11.4847

          OUT:                                     OUT:
          ----                                     ----
             STORAGE     =           0.0000               STORAGE     =           0.0000
       CONSTANT HEAD     =           0.0000         CONSTANT HEAD     =           0.0000
     HEAD DEP BOUNDS     =       24823.4590       HEAD DEP BOUNDS     =           0.2873
      STREAM LEAKAGE     =      967454.4375        STREAM LEAKAGE     =          11.1974
        UZF RECHARGE     =           0.0000          UZF RECHARGE     =           0.0000
               GW ET     =           0.0000                 GW ET     =           0.0000
     SURFACE LEAKAGE     =           0.0000       SURFACE LEAKAGE     =           0.0000
           AG WELLS      =           0.0000             AG WELLS      =           0.0000

               TOTAL OUT =      992277.8750                 TOTAL OUT =          11.4847

                IN - OUT =           0.1250                  IN - OUT =       9.5367E-07

     PERCENT DISCREPANCY =           0.00         PERCENT DISCREPANCY =           0.00






         TIME SUMMARY AT END OF TIME STEP    1 IN STRESS PERIOD    1
                    SECONDS     MINUTES      HOURS       DAYS        YEARS
                    -----------------------------------------------------------
   TIME STEP LENGTH  86400.      1440.0      24.000      1.0000     2.73785E-03
 STRESS PERIOD TIME  86400.      1440.0      24.000      1.0000     2.73785E-03
         TOTAL TIME  86400.      1440.0      24.000      1.0000     2.73785E-03
1
1
                            STRESS PERIOD NO.    2, LENGTH =   2630000.    
                            -----------------------------------------------

                              NUMBER OF TIME STEPS =    30

                               MULTIPLIER FOR DELT =     1.000

                            INITIAL TIME STEP SIZE =   87666.66    

 REUSING NON-PARAMETER GHB CELLS FROM LAST STRESS PERIOD

      2 GHB CELLS

 REUSING STREAM SEGMENT DATA FROM LAST STRESS PERIOD



            AREAL INFILTRATION RATE
 READING ON UNIT   19 WITH FORMAT: (FREE)              

            1           2           3           4           5           6           7           8           9          10
 ........................................................................................................................
   1   1.0000E-10  2.0000E-10   0.000       0.000       0.000       0.000       0.000       0.000       0.000       0.000    
   2   2.0000E-10  1.0000E-10  2.0000E-10   0.000       0.000      8.0000E-10  8.0000E-10  5.0000E-10   0.000       0.000    
   3    0.000      5.0000E-10  1.0000E-10  1.0000E-10  8.0000E-10  8.0000E-10  5.0000E-10  5.0000E-10   0.000       0.000    
   4   8.0000E-10  5.0000E-10  1.0000E-10  1.0000E-10  1.0000E-10  1.0000E-10  1.0000E-10  1.0000E-10  2.0000E-10   0.000    
   5   8.0000E-10  5.0000E-10  1.0000E-10  1.0000E-10  1.0000E-10  1.0000E-10  1.0000E-10  1.0000E-10  1.0000E-10  1.0000E-10
   6   8.0000E-10  5.0000E-10  5.0000E-10  2.0000E-10  2.0000E-10  1.0000E-10  1.0000E-10  1.0000E-10  1.0000E-10  5.0000E-10
   7   8.0000E-10  5.0000E-10  5.0000E-10  2.0000E-10  2.0000E-10  1.0000E-10  1.0000E-10  2.0000E-10  2.0000E-10   0.000    
   8    0.000      5.0000E-10  5.0000E-10  2.0000E-10  2.0000E-10  1.0000E-10  1.0000E-10  2.0000E-10  5.0000E-10   0.000    
   9    0.000      5.0000E-10  5.0000E-10  2.0000E-10  2.0000E-10  1.0000E-10  1.0000E-10  2.0000E-10  5.0000E-10   0.000    
  10    0.000      5.0000E-10  5.0000E-10  2.0000E-10  2.0000E-10  1.0000E-10  1.0000E-10  2.0000E-10  5.0000E-10  8.0000E-10
  11    0.000      1.0000E-10  1.0000E-10  1.0000E-10  1.0000E-10  1.0000E-10  1.0000E-10  2.0000E-10  5.0000E-10   0.000    
  12   1.0000E-10  1.0000E-10  1.0000E-10  1.0000E-10  1.0000E-10  1.0000E-10  1.0000E-10  1.0000E-10  2.0000E-10   0.000    
  13   1.0000E-10  1.0000E-10  2.0000E-10  2.0000E-10  2.0000E-10  2.0000E-10  2.0000E-10  1.0000E-10  1.0000E-10   0.000    
  14    0.000      2.0000E-10  5.0000E-10  5.0000E-10  5.0000E-10  5.0000E-10  5.0000E-10  2.0000E-10  1.0000E-10   0.000    
  15    0.000       0.000      8.0000E-10  8.0000E-10  8.0000E-10  8.0000E-10   0.000       0.000       0.000       0.000    

                  ET RATE =  5.000000E-10

 USING ET EXTINCTION DEPTH FROM PREVIOUS STRESS PERIOD. CURRENT PERIOD IS:       2

 USING EXTINCTION WATER CONTENT FROM PREVIOUS STRESS PERIOD. CURRENT PERIOD IS:       2

 USING AIR ENTRY PRESSURE FROM PREVIOUS STRESS PERIOD. CURRENT PERIOD IS:       2

 USING ROOT PRESSURE HEAD FROM PREVIOUS STRESS PERIOD. CURRENT PERIOD IS:       2

 USING ROOT ACTIVITY FROM PREVIOUS STRESS PERIOD. CURRENT PERIOD IS:       2

 PROCESSING AG STRESS PERIOD DATA

 READING AG STRESS PERIOD DATA

 READING IRRIGATION WELL

 NO IRRPOND OR REUSING IRRPOND DATA FROM LAST STRESS PERIOD

 END PROCESSING AG STRESS PERIOD DATA OPTIONS
 
 SOLVING FOR HEAD 
                                                   Max.-Head-Change                         Max.-Flux-Residual
  Residual-Control   Outer-Iter.   Inner-Iter.     Column Row Layer    Maximum-Head-Change  Column Row Layer    Maximum-Flux-Residual          L2-NORM 
          0                 1           2             4   13     1       0.6100925893E-02       4   13    1         0.3498422332E+00      0.7241929619E+00
          0                 2           2             4   13     1      -0.5804806769E-03       4   13    1        -0.3422456134E-01      0.7535226500E-01
          0                 3           1             4   13     1       0.3887810144E-04       4   13    1         0.2356749438E-02      0.5141582721E-02

    ------------------------------------------------
       NWT REQUIRED            3 OUTER ITERATIONS 
       AND A TOTAL OF          5 INNER ITERATIONS.
    ------------------------------------------------

 NO OUTPUT CONTROL FOR STRESS PERIOD    2   TIME STEP    1
 
 SOLVING FOR HEAD 
                                                   Max.-Head-Change                         Max.-Flux-Residual
  Residual-Control   Outer-Iter.   Inner-Iter.     Column Row Layer    Maximum-Head-Change  Column Row Layer    Maximum-Flux-Residual          L2-NORM 
          0                 1           2             2   13     1       0.5599479073E-02       4   13    1         0.3174806351E+00      0.6799971991E+00
          0                 2           2             4   13     1      -0.5333894286E-03       4   13    1        -0.3143040844E-01      0.6665920323E-01
          0                 3           1             4   13     1       0.3579450810E-04       4   13    1         0.2168587871E-02      0.4540732071E-02

    ------------------------------------------------
       NWT REQUIRED            3 OUTER ITERATIONS 
       AND A TOTAL OF          5 INNER ITERATIONS.
    ------------------------------------------------

 NO OUTPUT CONTROL FOR STRESS PERIOD    2   TIME STEP    2
 
 SOLVING FOR HEAD 
                                                   Max.-Head-Change                         Max.-Flux-Residual
  Residual-Control   Outer-Iter.   Inner-Iter.     Column Row Layer    Maximum-Head-Change  Column Row Layer    Maximum-Flux-Residual          L2-NORM 
          0                 1           2             2   13     1       0.5185893220E-02       2   13    1         0.2917490544E+00      0.6422042502E+00
          0                 2           2             4   13     1      -0.4838762654E-03       4   13    1        -0.2849620590E-01      0.6300660939E-01
          0                 3           1             4   13     1       0.3247010480E-04       4   13    1         0.1966036657E-02      0.4296601638E-02

    ------------------------------------------------
       NWT REQUIRED            3 OUTER ITERATIONS 
       AND A TOTAL OF          5 INNER ITERATIONS.
    ------------------------------------------------

 NO OUTPUT CONTROL FOR STRESS PERIOD    2   TIME STEP    3
 
 SOLVING FOR HEAD 
                                                   Max.-Head-Change                         Max.-Flux-Residual
  Residual-Control   Outer-Iter.   Inner-Iter.     Column Row Layer    Maximum-Head-Change  Column Row Layer    Maximum-Flux-Residual          L2-NORM 
          0                 1           2             2   13     1       0.4803152104E-02       2   13    1         0.2701872160E+00      0.6081804214E+00
          0                 2           2             2   13     1      -0.4473241206E-03       2   13    1        -0.2586613658E-01      0.5972373533E-01
          0                 3           1             4   13     1       0.2948075097E-04       4   13    1         0.1783938462E-02      0.4078813784E-02

    ------------------------------------------------
       NWT REQUIRED            3 OUTER ITERATIONS 
       AND A TOTAL OF          5 INNER ITERATIONS.
    ------------------------------------------------

 NO OUTPUT CONTROL FOR STRESS PERIOD    2   TIME STEP    4
 
 SOLVING FOR HEAD 
                                                   Max.-Head-Change                         Max.-Flux-Residual
  Residual-Control   Outer-Iter.   Inner-Iter.     Column Row Layer    Maximum-Head-Change  Column Row Layer    Maximum-Flux-Residual          L2-NORM 
          0                 1           2             2   13     1       0.4449056342E-02       2   13    1         0.2502404406E+00      0.5775483678E+00
          0                 2           2             2   13     1      -0.4144961520E-03       2   13    1        -0.2396508024E-01      0.5676895257E-01
          0                 3           1             4   13     1       0.2676661242E-04       4   13    1         0.1618675551E-02      0.3881544536E-02

    ------------------------------------------------
       NWT REQUIRED            3 OUTER ITERATIONS 
       AND A TOTAL OF          5 INNER ITERATIONS.
    ------------------------------------------------

 NO OUTPUT CONTROL FOR STRESS PERIOD    2   TIME STEP    5
 
 SOLVING FOR HEAD 
                                                   Max.-Head-Change                         Max.-Flux-Residual
  Residual-Control   Outer-Iter.   Inner-Iter.     Column Row Layer    Maximum-Head-Change  Column Row Layer    Maximum-Flux-Residual          L2-NORM 
          0                 1           2             2   13     1       0.4121424479E-02       2   13    1         0.2317856051E+00      0.5499867097E+00
          0                 2           2             2   13     1      -0.3840909662E-03       2   13    1        -0.2220443894E-01      0.5411202322E-01
          0                 3           1             2    2     1       0.2466198375E-04       4   13    1         0.1470823689E-02      0.3705677528E-02

    ------------------------------------------------
       NWT REQUIRED            3 OUTER ITERATIONS 
       AND A TOTAL OF          5 INNER ITERATIONS.
    ------------------------------------------------

 NO OUTPUT CONTROL FOR STRESS PERIOD    2   TIME STEP    6
 
 SOLVING FOR HEAD 
                                                   Max.-Head-Change                         Max.-Flux-Residual
  Residual-Control   Outer-Iter.   Inner-Iter.     Column Row Layer    Maximum-Head-Change  Column Row Layer    Maximum-Flux-Residual          L2-NORM 
          0                 1           2             2   13     1       0.3818219925E-02       2   13    1         0.2147077786E+00      0.5251893820E+00
          0                 2           2             2    2     1      -0.3594199037E-03       2   13    1        -0.2057523388E-01      0.5172365080E-01
          0                 3           1             2    2     1       0.2447515742E-04       2   13    1         0.1355088734E-02      0.3546506297E-02

    ------------------------------------------------
       NWT REQUIRED            3 OUTER ITERATIONS 
       AND A TOTAL OF          5 INNER ITERATIONS.
    ------------------------------------------------

 NO OUTPUT CONTROL FOR STRESS PERIOD    2   TIME STEP    7
 
 SOLVING FOR HEAD 
                                                   Max.-Head-Change                         Max.-Flux-Residual
  Residual-Control   Outer-Iter.   Inner-Iter.     Column Row Layer    Maximum-Head-Change  Column Row Layer    Maximum-Flux-Residual          L2-NORM 
          0                 1           2             2    2     1       0.3667085902E-02       2   13    1         0.1989111556E+00      0.5028818217E+00
          0                 2           2             2    2     1      -0.3567080460E-03       2    2    1        -0.1917041063E-01      0.4957532271E-01
          0                 3           1             2    2     1       0.2429048955E-04       2    2    1         0.1341928944E-02      0.3403801710E-02

    ------------------------------------------------
       NWT REQUIRED            3 OUTER ITERATIONS 
       AND A TOTAL OF          5 INNER ITERATIONS.
    ------------------------------------------------

 NO OUTPUT CONTROL FOR STRESS PERIOD    2   TIME STEP    8
 
 SOLVING FOR HEAD 
                                                   Max.-Head-Change                         Max.-Flux-Residual
  Residual-Control   Outer-Iter.   Inner-Iter.     Column Row Layer    Maximum-Head-Change  Column Row Layer    Maximum-Flux-Residual          L2-NORM 
          0                 1           2             2    2     1       0.3639701120E-02       2    2    1         0.1902627837E+00      0.4828029426E+00
          0                 2           2             2    2     1      -0.3540442415E-03       2    2    1        -0.1902631640E-01      0.4764117197E-01
          0                 3           1             2    2     1       0.2410909511E-04       2    2    1         0.1331842370E-02      0.3274953806E-02

    ------------------------------------------------
       NWT REQUIRED            3 OUTER ITERATIONS 
       AND A TOTAL OF          5 INNER ITERATIONS.
    ------------------------------------------------

 NO OUTPUT CONTROL FOR STRESS PERIOD    2   TIME STEP    9
 
 SOLVING FOR HEAD 
                                                   Max.-Head-Change                         Max.-Flux-Residual
  Residual-Control   Outer-Iter.   Inner-Iter.     Column Row Layer    Maximum-Head-Change  Column Row Layer    Maximum-Flux-Residual          L2-NORM 
          0                 1           2             2    2     1       0.3612629209E-02       2    2    1         0.1888383606E+00      0.4647319545E+00
          0                 2           2             2    2     1      -0.3514108715E-03       2    2    1        -0.1888387334E-01      0.4590301220E-01
          0                 3           1             2    2     1       0.2392977227E-04       2    2    1         0.1321871360E-02      0.3160308926E-02

    ------------------------------------------------
       NWT REQUIRED            3 OUTER ITERATIONS 
       AND A TOTAL OF          5 INNER ITERATIONS.
    ------------------------------------------------

 NO OUTPUT CONTROL FOR STRESS PERIOD    2   TIME STEP   10
 
 SOLVING FOR HEAD 
                                                   Max.-Head-Change                         Max.-Flux-Residual
  Residual-Control   Outer-Iter.   Inner-Iter.     Column Row Layer    Maximum-Head-Change  Column Row Layer    Maximum-Flux-Residual          L2-NORM 
          0                 1           2             2    2     1       0.3585951319E-02       2    2    1         0.1874347106E+00      0.4484533252E+00
          0                 2           2             2    2     1      -0.3488158285E-03       2    2    1        -0.1874350759E-01      0.4433733871E-01
          0                 3           1             2    2     1       0.2375305899E-04       2    2    1         0.1312045739E-02      0.3057689610E-02

    ------------------------------------------------
       NWT REQUIRED            3 OUTER ITERATIONS 
       AND A TOTAL OF          5 INNER ITERATIONS.
    ------------------------------------------------

 NO OUTPUT CONTROL FOR STRESS PERIOD    2   TIME STEP   11
 
 SOLVING FOR HEAD 
                                                   Max.-Head-Change                         Max.-Flux-Residual
  Residual-Control   Outer-Iter.   Inner-Iter.     Column Row Layer    Maximum-Head-Change  Column Row Layer    Maximum-Flux-Residual          L2-NORM 
          0                 1           2             2    2     1       0.3559571667E-02       2    2    1         0.1860468216E+00      0.4337721338E+00
          0                 2           2             2    2     1      -0.3462497965E-03       2    2    1        -0.1860471794E-01      0.4292428873E-01
          0                 3           1             2    2     1       0.2357832264E-04       2    2    1         0.1302330487E-02      0.2962679097E-02

    ------------------------------------------------
       NWT REQUIRED            3 OUTER ITERATIONS 
       AND A TOTAL OF          5 INNER ITERATIONS.
    ------------------------------------------------

 NO OUTPUT CONTROL FOR STRESS PERIOD    2   TIME STEP   12
 
 SOLVING FOR HEAD 
                                                   Max.-Head-Change                         Max.-Flux-Residual
  Residual-Control   Outer-Iter.   Inner-Iter.     Column Row Layer    Maximum-Head-Change  Column Row Layer    Maximum-Flux-Residual          L2-NORM 
          0                 1           2             2    2     1       0.3533663617E-02       2    2    1         0.1846837332E+00      0.4205338984E+00
          0                 2           2             2    2     1      -0.3437296391E-03       2    2    1        -0.1846840841E-01      0.4164974983E-01
          0                 3           1             2    2     1       0.2340670872E-04       2    2    1         0.1292788808E-02      0.2876734967E-02

    ------------------------------------------------
       NWT REQUIRED            3 OUTER ITERATIONS 
       AND A TOTAL OF          5 INNER ITERATIONS.
    ------------------------------------------------

 NO OUTPUT CONTROL FOR STRESS PERIOD    2   TIME STEP   13
 
 SOLVING FOR HEAD 
                                                   Max.-Head-Change                         Max.-Flux-Residual
  Residual-Control   Outer-Iter.   Inner-Iter.     Column Row Layer    Maximum-Head-Change  Column Row Layer    Maximum-Flux-Residual          L2-NORM 
          0                 1           2             2    2     1       0.3508043789E-02       2    2    1         0.1833358765E+00      0.4085705507E+00
          0                 2           2             2    2     1      -0.3412375176E-03       2    2    1        -0.1833362202E-01      0.4049870977E-01
          0                 3           1             2    2     1       0.2323700475E-04       2    2    1         0.1283353767E-02      0.2801725286E-02

    ------------------------------------------------
       NWT REQUIRED            3 OUTER ITERATIONS 
       AND A TOTAL OF          5 INNER ITERATIONS.
    ------------------------------------------------

 NO OUTPUT CONTROL FOR STRESS PERIOD    2   TIME STEP   14
 
 SOLVING FOR HEAD 
                                                   Max.-Head-Change                         Max.-Flux-Residual
  Residual-Control   Outer-Iter.   Inner-Iter.     Column Row Layer    Maximum-Head-Change  Column Row Layer    Maximum-Flux-Residual          L2-NORM 
          0                 1           2             2    2     1       0.3482793803E-02       2    2    1         0.1820075155E+00      0.3977362688E+00
          0                 2           2             2    2     1      -0.3387813724E-03       2    2    1        -0.1820078525E-01      0.3945485375E-01
          0                 3           1             2    2     1       0.2306975036E-04       2    2    1         0.1274055184E-02      0.2732583011E-02

    ------------------------------------------------
       NWT REQUIRED            3 OUTER ITERATIONS 
       AND A TOTAL OF          5 INNER ITERATIONS.
    ------------------------------------------------

 NO OUTPUT CONTROL FOR STRESS PERIOD    2   TIME STEP   15
 
 SOLVING FOR HEAD 
                                                   Max.-Head-Change                         Max.-Flux-Residual
  Residual-Control   Outer-Iter.   Inner-Iter.     Column Row Layer    Maximum-Head-Change  Column Row Layer    Maximum-Flux-Residual          L2-NORM 
          0                 1           2             2    2     1       0.3457907996E-02       2    2    1         0.1806983303E+00      0.3879265446E+00
          0                 2           2             2    2     1      -0.3363606523E-03       2    2    1        -0.1806986608E-01      0.3850824426E-01
          0                 3           1             2    2     1       0.2290490884E-04       2    2    1         0.1264890871E-02      0.2669507533E-02

    ------------------------------------------------
       NWT REQUIRED            3 OUTER ITERATIONS 
       AND A TOTAL OF          5 INNER ITERATIONS.
    ------------------------------------------------

 NO OUTPUT CONTROL FOR STRESS PERIOD    2   TIME STEP   16
 
 SOLVING FOR HEAD 
                                                   Max.-Head-Change                         Max.-Flux-Residual
  Residual-Control   Outer-Iter.   Inner-Iter.     Column Row Layer    Maximum-Head-Change  Column Row Layer    Maximum-Flux-Residual          L2-NORM 
          0                 1           2             2    2     1       0.3433380787E-02       2    2    1         0.1794080274E+00      0.3790056752E+00
          0                 2           2             2    2     1      -0.3339748135E-03       2    2    1        -0.1794083513E-01      0.3764782523E-01
          0                 3           1             2    2     1       0.2274244163E-04       2    2    1         0.1255858686E-02      0.2612090350E-02

    ------------------------------------------------
       NWT REQUIRED            3 OUTER ITERATIONS 
       AND A TOTAL OF          5 INNER ITERATIONS.
    ------------------------------------------------

 NO OUTPUT CONTROL FOR STRESS PERIOD    2   TIME STEP   17
 
 SOLVING FOR HEAD 
                                                   Max.-Head-Change                         Max.-Flux-Residual
  Residual-Control   Outer-Iter.   Inner-Iter.     Column Row Layer    Maximum-Head-Change  Column Row Layer    Maximum-Flux-Residual          L2-NORM 
          0                 1           2             2    2     1       0.3409205946E-02       2    2    1         0.1781363176E+00      0.3708958557E+00
          0                 2           2             2    2     1      -0.3316232523E-03       2    2    1        -0.1781366355E-01      0.3686567458E-01
          0                 3           1             2    2     1       0.2258230968E-04       2    2    1         0.1246956712E-02      0.2559779025E-02

    ------------------------------------------------
       NWT REQUIRED            3 OUTER ITERATIONS 
       AND A TOTAL OF          5 INNER ITERATIONS.
    ------------------------------------------------

 NO OUTPUT CONTROL FOR STRESS PERIOD    2   TIME STEP   18
 
 SOLVING FOR HEAD 
                                                   Max.-Head-Change                         Max.-Flux-Residual
  Residual-Control   Outer-Iter.   Inner-Iter.     Column Row Layer    Maximum-Head-Change  Column Row Layer    Maximum-Flux-Residual          L2-NORM 
          0                 1           2             2    2     1       0.3385290978E-02       2    2    1         0.1768783253E+00      0.3634936784E+00
          0                 2           2             2    2     1      -0.3292969681E-03       2    2    1        -0.1768786369E-01      0.3614917529E-01
          0                 3           1             2    2     1       0.2242389811E-04       2    2    1         0.1238150705E-02      0.2511079189E-02

    ------------------------------------------------
       NWT REQUIRED            3 OUTER ITERATIONS 
       AND A TOTAL OF          5 INNER ITERATIONS.
    ------------------------------------------------

 NO OUTPUT CONTROL FOR STRESS PERIOD    2   TIME STEP   19
 
 SOLVING FOR HEAD 
                                                   Max.-Head-Change                         Max.-Flux-Residual
  Residual-Control   Outer-Iter.   Inner-Iter.     Column Row Layer    Maximum-Head-Change  Column Row Layer    Maximum-Flux-Residual          L2-NORM 
          0                 1           2             2    2     1       0.3361718007E-02       2    2    1         0.1756383593E+00      0.3567228777E+00
          0                 2           2             2    2     1      -0.3270039516E-03       2    2    1        -0.1756386649E-01      0.3549538124E-01
          0                 3           1             2    2     1       0.2226775244E-04       2    2    1         0.1229470898E-02      0.2468447094E-02

    ------------------------------------------------
       NWT REQUIRED            3 OUTER ITERATIONS 
       AND A TOTAL OF          5 INNER ITERATIONS.
    ------------------------------------------------

 NO OUTPUT CONTROL FOR STRESS PERIOD    2   TIME STEP   20
 
 SOLVING FOR HEAD 
                                                   Max.-Head-Change                         Max.-Flux-Residual
  Residual-Control   Outer-Iter.   Inner-Iter.     Column Row Layer    Maximum-Head-Change  Column Row Layer    Maximum-Flux-Residual          L2-NORM 
          0                 1           2             2    2     1       0.3338481869E-02       2    2    1         0.1744161255E+00      0.3505175158E+00
          0                 2           2             2    2     1      -0.3247437000E-03       2    2    1        -0.1744164252E-01      0.3489431848E-01
          0                 3           1             2    2     1       0.2211383766E-04       2    2    1         0.1220915212E-02      0.2427769748E-02

    ------------------------------------------------
       NWT REQUIRED            3 OUTER ITERATIONS 
       AND A TOTAL OF          5 INNER ITERATIONS.
    ------------------------------------------------

 NO OUTPUT CONTROL FOR STRESS PERIOD    2   TIME STEP   21
 
 SOLVING FOR HEAD 
                                                   Max.-Head-Change                         Max.-Flux-Residual
  Residual-Control   Outer-Iter.   Inner-Iter.     Column Row Layer    Maximum-Head-Change  Column Row Layer    Maximum-Flux-Residual          L2-NORM 
          0                 1           2             2    2     1       0.3315576681E-02       2    2    1         0.1732113562E+00      0.3448125011E+00
          0                 2           2             2    2     1      -0.3225156414E-03       2    2    1        -0.1732116503E-01      0.3434206855E-01
          0                 3           1             2    2     1       0.2196211495E-04       2    2    1         0.1212481787E-02      0.2391346582E-02

    ------------------------------------------------
       NWT REQUIRED            3 OUTER ITERATIONS 
       AND A TOTAL OF          5 INNER ITERATIONS.
    ------------------------------------------------

 NO OUTPUT CONTROL FOR STRESS PERIOD    2   TIME STEP   22
 
 SOLVING FOR HEAD 
                                                   Max.-Head-Change                         Max.-Flux-Residual
  Residual-Control   Outer-Iter.   Inner-Iter.     Column Row Layer    Maximum-Head-Change  Column Row Layer    Maximum-Flux-Residual          L2-NORM 
          0                 1           2             2    2     1       0.3292997431E-02       2    2    1         0.1720237463E+00      0.3395513435E+00
          0                 2           2             2    2     1      -0.3203192874E-03       2    2    1        -0.1720240346E-01      0.3383121406E-01
          0                 3           1             2    2     1       0.2181255188E-04       2    2    1         0.1204168488E-02      0.2356659775E-02

    ------------------------------------------------
       NWT REQUIRED            3 OUTER ITERATIONS 
       AND A TOTAL OF          5 INNER ITERATIONS.
    ------------------------------------------------

 NO OUTPUT CONTROL FOR STRESS PERIOD    2   TIME STEP   23
 
 SOLVING FOR HEAD 
                                                   Max.-Head-Change                         Max.-Flux-Residual
  Residual-Control   Outer-Iter.   Inner-Iter.     Column Row Layer    Maximum-Head-Change  Column Row Layer    Maximum-Flux-Residual          L2-NORM 
          0                 1           2             2    2     1       0.3270656597E-02       2    2    1         0.1708487174E+00      0.3346880971E+00
          0                 2           2             2    2     1      -0.3181461255E-03       2    2    1        -0.1708490004E-01      0.3335825067E-01
          0                 3           1             2    2     1       0.2166456742E-04       2    2    1         0.1195943243E-02      0.2324961194E-02

    ------------------------------------------------
       NWT REQUIRED            3 OUTER ITERATIONS 
       AND A TOTAL OF          5 INNER ITERATIONS.
    ------------------------------------------------

 NO OUTPUT CONTROL FOR STRESS PERIOD    2   TIME STEP   24
 
 SOLVING FOR HEAD 
                                                   Max.-Head-Change                         Max.-Flux-Residual
  Residual-Control   Outer-Iter.   Inner-Iter.     Column Row Layer    Maximum-Head-Change  Column Row Layer    Maximum-Flux-Residual          L2-NORM 
          0                 1           2             2    2     1       0.3248714847E-02       2    2    1         0.1696946871E+00      0.3301815247E+00
          0                 2           2             2    2     1      -0.3160117836E-03       2    2    1        -0.1696949649E-01      0.3291995521E-01
          0                 3           1             2    2     1       0.2151922636E-04       2    2    1         0.1187865000E-02      0.2295267572E-02

    ------------------------------------------------
       NWT REQUIRED            3 OUTER ITERATIONS 
       AND A TOTAL OF          5 INNER ITERATIONS.
    ------------------------------------------------

 NO OUTPUT CONTROL FOR STRESS PERIOD    2   TIME STEP   25
 
 SOLVING FOR HEAD 
                                                   Max.-Head-Change                         Max.-Flux-Residual
  Residual-Control   Outer-Iter.   Inner-Iter.     Column Row Layer    Maximum-Head-Change  Column Row Layer    Maximum-Flux-Residual          L2-NORM 
          0                 1           2             2    2     1       0.3226996318E-02       2    2    1         0.1685524774E+00      0.3259931253E+00
          0                 2           2             2    2     1      -0.3138991551E-03       2    2    1        -0.1685527501E-01      0.3251197008E-01
          0                 3           1             2    2     1       0.2137536428E-04       2    2    1         0.1179869492E-02      0.2267911788E-02

    ------------------------------------------------
       NWT REQUIRED            3 OUTER ITERATIONS 
       AND A TOTAL OF          5 INNER ITERATIONS.
    ------------------------------------------------

 NO OUTPUT CONTROL FOR STRESS PERIOD    2   TIME STEP   26
 
 SOLVING FOR HEAD 
                                                   Max.-Head-Change                         Max.-Flux-Residual
  Residual-Control   Outer-Iter.   Inner-Iter.     Column Row Layer    Maximum-Head-Change  Column Row Layer    Maximum-Flux-Residual          L2-NORM 
          0                 1           2             2    2     1       0.3205584551E-02       2    2    1         0.1674263944E+00      0.3220845827E+00
          0                 2           2             2    2     1      -0.3118163661E-03       2    2    1        -0.1674266619E-01      0.3213041842E-01
          0                 3           1             2    2     1       0.2123353474E-04       2    2    1         0.1171986875E-02      0.2242064273E-02

    ------------------------------------------------
       NWT REQUIRED            3 OUTER ITERATIONS 
       AND A TOTAL OF          5 INNER ITERATIONS.
    ------------------------------------------------

 NO OUTPUT CONTROL FOR STRESS PERIOD    2   TIME STEP   27
 
 SOLVING FOR HEAD 
                                                   Max.-Head-Change                         Max.-Flux-Residual
  Residual-Control   Outer-Iter.   Inner-Iter.     Column Row Layer    Maximum-Head-Change  Column Row Layer    Maximum-Flux-Residual          L2-NORM 
          0                 1           2             2    2     1       0.3184474142E-02       2    2    1         0.1663162167E+00      0.3184308763E+00
          0                 2           2             2    2     1      -0.3097628919E-03       2    2    1        -0.1663164794E-01      0.3177365961E-01
          0                 3           1             2    2     1       0.2109370060E-04       2    2    1         0.1164215607E-02      0.2217187724E-02

    ------------------------------------------------
       NWT REQUIRED            3 OUTER ITERATIONS 
       AND A TOTAL OF          5 INNER ITERATIONS.
    ------------------------------------------------

 NO OUTPUT CONTROL FOR STRESS PERIOD    2   TIME STEP   28
 
 SOLVING FOR HEAD 
                                                   Max.-Head-Change                         Max.-Flux-Residual
  Residual-Control   Outer-Iter.   Inner-Iter.     Column Row Layer    Maximum-Head-Change  Column Row Layer    Maximum-Flux-Residual          L2-NORM 
          0                 1           2             2    2     1       0.3163660653E-02       2    2    1         0.1652216641E+00      0.3150072716E+00
          0                 2           2             2    2     1      -0.3077383002E-03       2    2    1        -0.1652219222E-01      0.3143879466E-01
          0                 3           1             2    2     1       0.2095583392E-04       2    2    1         0.1156553728E-02      0.2194989560E-02

    ------------------------------------------------
       NWT REQUIRED            3 OUTER ITERATIONS 
       AND A TOTAL OF          5 INNER ITERATIONS.
    ------------------------------------------------

 NO OUTPUT CONTROL FOR STRESS PERIOD    2   TIME STEP   29
 
 SOLVING FOR HEAD 
                                                   Max.-Head-Change                         Max.-Flux-Residual
  Residual-Control   Outer-Iter.   Inner-Iter.     Column Row Layer    Maximum-Head-Change  Column Row Layer    Maximum-Flux-Residual          L2-NORM 
          0                 1           2             2    2     1       0.3143052544E-02       2    2    1         0.1641379530E+00      0.3117835503E+00
          0                 2           2             2    2     1      -0.3057336851E-03       2    2    1        -0.1641382062E-01      0.3112277354E-01
          0                 3           1             2    2     1       0.2081932646E-04       2    2    1         0.1148967674E-02      0.2173504787E-02

    ------------------------------------------------
       NWT REQUIRED            3 OUTER ITERATIONS 
       AND A TOTAL OF          5 INNER ITERATIONS.
    ------------------------------------------------

 NO OUTPUT CONTROL FOR STRESS PERIOD    2   TIME STEP   30



 STREAM LISTING     PERIOD      2   STEP       30

 LAYER ROW COL. STREAM  RCH.  FLOW INTO     FLOW TO   FLOW OUT OF   OVRLND.     DIRECT     STREAM       STREAM     STREAM     STREAM   STREAMBED  STREAMBED
                SEG.NO.  NO.  STRM. RCH.    AQUIFER    STRM. RCH.    RUNOFF     PRECIP       ET          HEAD       DEPTH      WIDTH   CONDCTNC.   GRADIENT

   1    1    1     1     1    2.2000E+01  2.3088E-01   2.1769E+01  0.000E+00  0.000E+00  0.000E+00  1.09418E+03  1.132E+00  1.242E+01  5.588E-02  1.377E+00
   1    2    2     1     2    2.1769E+01  3.5689E-01   2.1412E+01  0.000E+00  0.000E+00  0.000E+00  1.08919E+03  1.127E+00  1.235E+01  8.648E-02  1.376E+00
   1    3    3     1     3    2.1412E+01  3.0372E-01   2.1109E+01  0.000E+00  0.000E+00  0.000E+00  1.08354E+03  1.121E+00  1.228E+01  7.369E-02  1.374E+00
   1    3    4     1     4    2.1109E+01  2.7914E-01   2.0829E+01  0.000E+00  0.000E+00  0.000E+00  1.07852E+03  1.117E+00  1.222E+01  6.781E-02  1.372E+00
   1    4    5     2     1    1.8829E+01  3.1306E-01   1.8516E+01  0.000E+00  0.000E+00  0.000E+00  1.07295E+03  1.014E+00  1.200E+01  7.800E-02  1.338E+00
   1    5    6     2     2    1.8516E+01  2.4027E-01   1.8276E+01  0.000E+00  0.000E+00  0.000E+00  1.06751E+03  1.005E+00  1.200E+01  6.000E-02  1.335E+00
   1    6    6     2     3    1.8276E+01  2.3980E-01   1.8036E+01  0.000E+00  0.000E+00  0.000E+00  1.06279E+03  9.967E-01  1.200E+01  6.000E-02  1.332E+00
   1    7    6     2     4    1.8036E+01  2.3933E-01   1.7797E+01  0.000E+00  0.000E+00  0.000E+00  1.05806E+03  9.888E-01  1.200E+01  6.000E-02  1.330E+00
   1    8    6     2     5    1.7797E+01  2.3885E-01   1.7558E+01  0.000E+00  0.000E+00  0.000E+00  1.05334E+03  9.808E-01  1.200E+01  6.000E-02  1.327E+00
   1    3    5     3     1    2.0000E+00  2.8252E-01   1.7175E+00  0.000E+00  0.000E+00  0.000E+00  1.07555E+03  1.909E+00  9.636E+00  7.227E-02  1.955E+00
   1    3    6     3     2    1.7175E+00  2.4905E-01   1.4684E+00  0.000E+00  0.000E+00  0.000E+00  1.07264E+03  1.727E+00  8.909E+00  6.682E-02  1.864E+00
   1    3    7     3     3    1.4684E+00  1.9718E-01   1.2712E+00  0.000E+00  0.000E+00  0.000E+00  1.06987E+03  1.555E+00  8.218E+00  5.547E-02  1.777E+00
   1    4    8     3     4    1.2712E+00  2.2567E-01   1.0456E+00  0.000E+00  0.000E+00  0.000E+00  1.06682E+03  1.364E+00  7.455E+00  6.709E-02  1.682E+00
   1    5    8     3     5    1.0456E+00  1.5790E-01   8.8768E-01  0.000E+00  0.000E+00  0.000E+00  1.06362E+03  1.164E+00  6.655E+00  4.991E-02  1.582E+00
   1    6    8     3     6    8.8768E-01  5.5980E-02   8.3170E-01  0.000E+00  0.000E+00  0.000E+00  1.06158E+03  1.036E+00  6.145E+00  1.844E-02  1.518E+00
   1    5   10     4     1    1.0000E+01  9.0919E-02   9.9091E+00  0.000E+00  0.000E+00  0.000E+00  1.07836E+03  6.368E-01  1.000E+01  2.500E-02  1.212E+00
   1    5    9     4     2    9.9091E+00  1.8158E-01   9.7275E+00  0.000E+00  0.000E+00  0.000E+00  1.07154E+03  6.315E-01  1.000E+01  5.000E-02  1.211E+00
   1    6    8     4     3    9.7275E+00  1.2689E-01   9.6006E+00  0.000E+00  0.000E+00  0.000E+00  1.06381E+03  6.256E-01  1.000E+01  3.500E-02  1.209E+00
   1    6    8     5     1    1.0432E+01  2.2686E-01   1.0205E+01  0.000E+00  0.000E+00  0.000E+00  1.05868E+03  6.790E-01  1.542E+01  6.166E-02  1.226E+00
   1    7    7     5     2    1.0205E+01  2.7894E-01   9.9265E+00  0.000E+00  0.000E+00  0.000E+00  1.05417E+03  6.732E-01  1.519E+01  7.594E-02  1.224E+00
   1    8    7     5     3    9.9265E+00  1.9221E-01   9.7343E+00  0.000E+00  0.000E+00  0.000E+00  1.04992E+03  6.676E-01  1.497E+01  5.241E-02  1.223E+00
   1    8    6     5     4    9.7343E+00  1.3577E-01   9.5985E+00  0.000E+00  0.000E+00  0.000E+00  1.04691E+03  6.637E-01  1.482E+01  3.706E-02  1.221E+00
   1    9    6     6     1    2.7157E+01  2.5677E-01   2.6900E+01  0.000E+00  0.000E+00  0.000E+00  1.04401E+03  1.280E+00  1.200E+01  6.000E-02  1.427E+00
   1   10    7     6     2    2.6900E+01  2.5634E-01   2.6644E+01  0.000E+00  0.000E+00  0.000E+00  1.03945E+03  1.272E+00  1.200E+01  6.000E-02  1.424E+00
   1   11    7     6     3    2.6644E+01  2.5590E-01   2.6388E+01  0.000E+00  0.000E+00  0.000E+00  1.03490E+03  1.265E+00  1.200E+01  6.000E-02  1.422E+00
   1   12    7     6     4    2.6388E+01  2.5546E-01   2.6132E+01  0.000E+00  0.000E+00  0.000E+00  1.03035E+03  1.258E+00  1.200E+01  6.000E-02  1.419E+00
   1   13    7     6     5    2.6132E+01  1.0939E-03   2.6131E+01  0.000E+00  0.000E+00  0.000E+00  1.02716E+03  1.254E+00  1.200E+01  2.400E-02  1.519E-02
   1   14    9     7     1    1.5000E+02  1.3306E+00   1.4867E+02  0.000E+00  0.000E+00  0.000E+00  1.03987E+03  2.288E+00  5.529E+01  5.593E-01  7.930E-01
   1   13    8     7     2    1.4867E+02  1.8228E+00   1.4685E+02  0.000E+00  0.000E+00  0.000E+00  1.03478E+03  2.279E+00  5.526E+01  6.148E-01  9.883E-01
   1   13    7     7     3    1.4685E+02  1.4367E+00   1.4541E+02  0.000E+00  0.000E+00  0.000E+00  1.02969E+03  2.271E+00  5.522E+01  5.585E-01  8.575E-01
   1   13    6     8     1    1.7154E+02  8.8336E-01   1.7066E+02  0.000E+00  0.000E+00  0.000E+00  1.02483E+03  2.959E+00  4.291E+01  4.373E-01  6.734E-01
   1   13    5     8     2    1.7066E+02  1.2909E-01   1.7053E+02  0.000E+00  0.000E+00  0.000E+00  1.01858E+03  2.956E+00  4.286E+01  4.368E-01  9.852E-02
   1   13    4     8     3    1.7053E+02 -2.6157E+00   1.7314E+02  0.000E+00  0.000E+00  0.000E+00  1.01234E+03  2.964E+00  4.298E+01  4.380E+00 -1.991E-01
   1   13    3     8     4    1.7314E+02 -3.7119E+00   1.7686E+02  0.000E+00  0.000E+00  0.000E+00  1.00611E+03  2.984E+00  4.327E+01  4.410E+00 -2.806E-01
   1   13    2     8     5    1.7686E+02 -2.5514E+00   1.7941E+02  0.000E+00  0.000E+00  0.000E+00  9.99879E+02  3.004E+00  4.356E+01  4.439E+00 -1.916E-01
   1   13    1     8     6    1.7941E+02 -1.9322E+00   1.8134E+02  0.000E+00  0.000E+00  0.000E+00  9.94893E+02  3.019E+00  4.377E+01  2.676E+00 -2.407E-01





UNSATURATED ZONE PACKAGE VOLUMETRIC BUDGET FOR  TIME STEP    30 STRESS PERIOD    2
  ------------------------------------------------------------------------------



     CUMULATIVE VOLUMES      L**3       RATES FOR THIS TIME STEP      L**3/T
     ------------------                 ------------------------

           IN:                                      IN:
           ---                                      ---
        INFILTRATION =     2302148.8727          INFILTRATION =           0.8475

          OUT:                                     OUT:
          ----                                     ----
              UZF ET =     1972459.3430                UZF ET =           0.7500
        UZF RECHARGE =       73224.0000          UZF RECHARGE =       0.0000E+00

            IN - OUT =      256465.5297              IN - OUT =       9.7500E-02

          STORAGE:                                 STORAGE:
          --------                                 --------
      STORAGE CHANGE =      256465.5549        STORAGE CHANGE =       9.7500E-02

 PERCENT DISCREPANCY IS DIFFERENCE BETWEEN IN-OUT MINUS CHANGE IN STORAGE
 DIVIDED BY THE AVERAGE OF IN AND OUT TIMES 100

 PERCENT DISCREPANCY =          -0.00     PERCENT DISCREPANCY =           0.00






1
  VOLUMETRIC BUDGET FOR AGRICULTURAL FIELDS AT  END OF TIME STEP   30, STRESS PERIOD   2
  ------------------------------------------------------------------------------

     CUMULATIVE VOLUMES      L**3       RATES FOR THIS TIME STEP      L**3/T
     ------------------                 ------------------------

           IN:                                      IN:
           ---                                      ---
               AG WELLS  =           0.0000                 AG WELLS  =           0.0000
      DIVERSION SEGMENTS =           0.0000        DIVERSION SEGMENTS =           0.0000
       IRRIGATION PONDS  =           0.0000         IRRIGATION PONDS  =           0.0000
           GW IRRIGATION =           0.0000             GW IRRIGATION =           0.0000
           SW IRRIGATION =           0.0000             SW IRRIGATION =           0.0000
        SYSTEM LOSSES GW =           0.0000          SYSTEM LOSSES GW =           0.0000
        SYSTEM LOSSES SW =           0.0000          SYSTEM LOSSES SW =           0.0000

                TOTAL IN =           0.0000                  TOTAL IN =           0.0000

          OUT:                                     OUT:
          ----                                     ----
               AG WELLS  =           0.0000                 AG WELLS  =           0.0000
      DIVERSION SEGMENTS =           0.0000        DIVERSION SEGMENTS =           0.0000
       IRRIGATION PONDS  =           0.0000         IRRIGATION PONDS  =           0.0000
           GW IRRIGATION =           0.0000             GW IRRIGATION =           0.0000
           SW IRRIGATION =           0.0000             SW IRRIGATION =           0.0000
        SYSTEM LOSSES GW =           0.0000          SYSTEM LOSSES GW =           0.0000
        SYSTEM LOSSES SW =           0.0000          SYSTEM LOSSES SW =           0.0000

               TOTAL OUT =           0.0000                 TOTAL OUT =           0.0000

                IN - OUT =           0.0000                  IN - OUT =           0.0000

     PERCENT DISCREPANCY =           0.00         PERCENT DISCREPANCY =           0.00



1
  VOLUMETRIC BUDGET FOR ENTIRE MODEL AT END OF TIME STEP   30, STRESS PERIOD   2
  ------------------------------------------------------------------------------

     CUMULATIVE VOLUMES      L**3       RATES FOR THIS TIME STEP      L**3/T
     ------------------                 ------------------------

           IN:                                      IN:
           ---                                      ---
             STORAGE     =     1687680.6250               STORAGE     =           0.5792
       CONSTANT HEAD     =           0.0000         CONSTANT HEAD     =           0.0000
     HEAD DEP BOUNDS     =      775205.3125       HEAD DEP BOUNDS     =           0.2854
      STREAM LEAKAGE     =    31116962.0000        STREAM LEAKAGE     =          11.4714
        UZF RECHARGE     =       73223.9531          UZF RECHARGE     =           0.0000
               GW ET     =           0.0000                 GW ET     =           0.0000
     SURFACE LEAKAGE     =           0.0000       SURFACE LEAKAGE     =           0.0000
           AG WELLS      =           0.0000             AG WELLS      =           0.0000

                TOTAL IN =    33653072.0000                  TOTAL IN =          12.3360

          OUT:                                     OUT:
          ----                                     ----
             STORAGE     =     4220741.5000               STORAGE     =           1.2356
       CONSTANT HEAD     =           0.0000         CONSTANT HEAD     =           0.0000
     HEAD DEP BOUNDS     =      783850.8125       HEAD DEP BOUNDS     =           0.2894
      STREAM LEAKAGE     =    28649202.0000        STREAM LEAKAGE     =          10.8112
        UZF RECHARGE     =           0.0000          UZF RECHARGE     =           0.0000
               GW ET     =           0.0000                 GW ET     =           0.0000
     SURFACE LEAKAGE     =           0.0000       SURFACE LEAKAGE     =           0.0000
           AG WELLS      =           0.0000             AG WELLS      =           0.0000

               TOTAL OUT =    33653796.0000                 TOTAL OUT =          12.3362

                IN - OUT =        -724.0000                  IN - OUT =      -1.8406E-04

     PERCENT DISCREPANCY =          -0.00         PERCENT DISCREPANCY =          -0.00






         TIME SUMMARY AT END OF TIME STEP   30 IN STRESS PERIOD    2
                    SECONDS     MINUTES      HOURS       DAYS        YEARS
                    -----------------------------------------------------------
   TIME STEP LENGTH  87667.      1461.1      24.352      1.0147     2.77799E-03
 STRESS PERIOD TIME 2.63000E+06  43833.      730.56      30.440     8.33397E-02
         TOTAL TIME 2.71640E+06  45273.      754.56      31.440     8.60775E-02
1
1
                            STRESS PERIOD NO.    3, LENGTH =   2630000.    
                            -----------------------------------------------

                              NUMBER OF TIME STEPS =    30

                               MULTIPLIER FOR DELT =     1.000

                            INITIAL TIME STEP SIZE =   87666.66    

 REUSING NON-PARAMETER GHB CELLS FROM LAST STRESS PERIOD

      2 GHB CELLS

 REUSING STREAM SEGMENT DATA FROM LAST STRESS PERIOD



            AREAL INFILTRATION RATE
 READING ON UNIT   19 WITH FORMAT: (FREE)              

            1           2           3           4           5           6           7           8           9          10
 ........................................................................................................................
   1   1.0000E-10  2.0000E-10   0.000       0.000       0.000       0.000       0.000       0.000       0.000       0.000    
   2   2.0000E-10  1.0000E-10  2.0000E-10   0.000       0.000      8.0000E-10  8.0000E-10  5.0000E-10   0.000       0.000    
   3    0.000      5.0000E-10  1.0000E-10  1.0000E-10  8.0000E-10  8.0000E-10  5.0000E-10  5.0000E-10   0.000       0.000    
   4   8.0000E-10  5.0000E-10  1.0000E-10  1.0000E-10  1.0000E-10  1.0000E-10  1.0000E-10  1.0000E-10  2.0000E-10   0.000    
   5   8.0000E-10  5.0000E-10  1.0000E-10  1.0000E-10  1.0000E-10  1.0000E-10  1.0000E-10  1.0000E-10  1.0000E-10  1.0000E-10
   6   8.0000E-10  5.0000E-10  5.0000E-10  2.0000E-10  2.0000E-10  1.0000E-10  1.0000E-10  1.0000E-10  1.0000E-10  5.0000E-10
   7   8.0000E-10  5.0000E-10  5.0000E-10  2.0000E-10  2.0000E-10  1.0000E-10  1.0000E-10  2.0000E-10  2.0000E-10   0.000    
   8    0.000      5.0000E-10  5.0000E-10  2.0000E-10  2.0000E-10  1.0000E-10  1.0000E-10  2.0000E-10  5.0000E-10   0.000    
   9    0.000      5.0000E-10  5.0000E-10  2.0000E-10  2.0000E-10  1.0000E-10  1.0000E-10  2.0000E-10  5.0000E-10   0.000    
  10    0.000      5.0000E-10  5.0000E-10  2.0000E-10  2.0000E-10  1.0000E-10  1.0000E-10  2.0000E-10  5.0000E-10  8.0000E-10
  11    0.000      1.0000E-10  1.0000E-10  1.0000E-10  1.0000E-10  1.0000E-10  1.0000E-10  2.0000E-10  5.0000E-10   0.000    
  12   1.0000E-10  1.0000E-10  1.0000E-10  1.0000E-10  1.0000E-10  1.0000E-10  1.0000E-10  1.0000E-10  2.0000E-10   0.000    
  13   1.0000E-10  1.0000E-10  2.0000E-10  2.0000E-10  2.0000E-10  2.0000E-10  2.0000E-10  1.0000E-10  1.0000E-10   0.000    
  14    0.000      2.0000E-10  5.0000E-10  5.0000E-10  5.0000E-10  5.0000E-10  5.0000E-10  2.0000E-10  1.0000E-10   0.000    
  15    0.000       0.000      8.0000E-10  8.0000E-10  8.0000E-10  8.0000E-10   0.000       0.000       0.000       0.000    

                  ET RATE =  5.000000E-10

 USING ET EXTINCTION DEPTH FROM PREVIOUS STRESS PERIOD. CURRENT PERIOD IS:       3

 USING EXTINCTION WATER CONTENT FROM PREVIOUS STRESS PERIOD. CURRENT PERIOD IS:       3

 USING AIR ENTRY PRESSURE FROM PREVIOUS STRESS PERIOD. CURRENT PERIOD IS:       3

 USING ROOT PRESSURE HEAD FROM PREVIOUS STRESS PERIOD. CURRENT PERIOD IS:       3

 USING ROOT ACTIVITY FROM PREVIOUS STRESS PERIOD. CURRENT PERIOD IS:       3

 PROCESSING AG STRESS PERIOD DATA

 READING AG STRESS PERIOD DATA

 READING IRRIGATION WELL

 NO IRRPOND OR REUSING IRRPOND DATA FROM LAST STRESS PERIOD

 END PROCESSING AG STRESS PERIOD DATA OPTIONS
 
 SOLVING FOR HEAD 
                                                   Max.-Head-Change                         Max.-Flux-Residual
  Residual-Control   Outer-Iter.   Inner-Iter.     Column Row Layer    Maximum-Head-Change  Column Row Layer    Maximum-Flux-Residual          L2-NORM 
          0                 1           2             2    2     1       0.4445665286E-02       2   13    1         0.2434066220E+00      0.6122455110E+00
          0                 2           2             2    2     1      -0.4324427978E-03       4   13    1        -0.2398280827E-01      0.6028183369E-01
          0                 3           1             2    2     1       0.2944774381E-04       4   13    1         0.1654190492E-02      0.4132676097E-02

    ------------------------------------------------
       NWT REQUIRED            3 OUTER ITERATIONS 
       AND A TOTAL OF          5 INNER ITERATIONS.
    ------------------------------------------------

 NO OUTPUT CONTROL FOR STRESS PERIOD    3   TIME STEP    1
 
 SOLVING FOR HEAD 
                                                   Max.-Head-Change                         Max.-Flux-Residual
  Residual-Control   Outer-Iter.   Inner-Iter.     Column Row Layer    Maximum-Head-Change  Column Row Layer    Maximum-Flux-Residual          L2-NORM 
          0                 1           2             2   13     1       0.7704228150E-02       4   13    1         0.4384295257E+00      0.9459695459E+00
          0                 2           2             4   13     1      -0.7354931067E-03       4   13    1        -0.4338184119E-01      0.9262998593E-01
          0                 3           1             4   13     1       0.4934807919E-04       4   13    1         0.2992601530E-02      0.6301614212E-02

    ------------------------------------------------
       NWT REQUIRED            3 OUTER ITERATIONS 
       AND A TOTAL OF          5 INNER ITERATIONS.
    ------------------------------------------------

 NO OUTPUT CONTROL FOR STRESS PERIOD    3   TIME STEP    2
 
 SOLVING FOR HEAD 
                                                   Max.-Head-Change                         Max.-Flux-Residual
  Residual-Control   Outer-Iter.   Inner-Iter.     Column Row Layer    Maximum-Head-Change  Column Row Layer    Maximum-Flux-Residual          L2-NORM 
          0                 1           2             2   13     1       0.7121116640E-02       2   13    1         0.4014735264E+00      0.8938699939E+00
          0                 2           2             4   13     1      -0.6668010778E-03       4   13    1        -0.3930253460E-01      0.8761642163E-01
          0                 3           1             4   13     1       0.4472506444E-04       4   13    1         0.2710313403E-02      0.5968252171E-02

    ------------------------------------------------
       NWT REQUIRED            3 OUTER ITERATIONS 
       AND A TOTAL OF          5 INNER ITERATIONS.
    ------------------------------------------------

 NO OUTPUT CONTROL FOR STRESS PERIOD    3   TIME STEP    3
 
 SOLVING FOR HEAD 
                                                   Max.-Head-Change                         Max.-Flux-Residual
  Residual-Control   Outer-Iter.   Inner-Iter.     Column Row Layer    Maximum-Head-Change  Column Row Layer    Maximum-Flux-Residual          L2-NORM 
          0                 1           2             2   13     1       0.6582771786E-02       2   13    1         0.3710762475E+00      0.8472032202E+00
          0                 2           2             2   13     1      -0.6119550421E-03       4   13    1        -0.3563263179E-01      0.8312984471E-01
          0                 3           1             4   13     1       0.4057758001E-04       4   13    1         0.2457150210E-02      0.5671347157E-02

    ------------------------------------------------
       NWT REQUIRED            3 OUTER ITERATIONS 
       AND A TOTAL OF          5 INNER ITERATIONS.
    ------------------------------------------------

 NO OUTPUT CONTROL FOR STRESS PERIOD    3   TIME STEP    4
 
 SOLVING FOR HEAD 
                                                   Max.-Head-Change                         Max.-Flux-Residual
  Residual-Control   Outer-Iter.   Inner-Iter.     Column Row Layer    Maximum-Head-Change  Column Row Layer    Maximum-Flux-Residual          L2-NORM 
          0                 1           2             2   13     1       0.6085655586E-02       2   13    1         0.3430085352E+00      0.8054133240E+00
          0                 2           2             2   13     1      -0.5659520978E-03       2   13    1        -0.3278943612E-01      0.7911601767E-01
          0                 3           1             4   13     1       0.3683652880E-04       4   13    1         0.2228863331E-02      0.5406648515E-02

    ------------------------------------------------
       NWT REQUIRED            3 OUTER ITERATIONS 
       AND A TOTAL OF          5 INNER ITERATIONS.
    ------------------------------------------------

 NO OUTPUT CONTROL FOR STRESS PERIOD    3   TIME STEP    5
 
 SOLVING FOR HEAD 
                                                   Max.-Head-Change                         Max.-Flux-Residual
  Residual-Control   Outer-Iter.   Inner-Iter.     Column Row Layer    Maximum-Head-Change  Column Row Layer    Maximum-Flux-Residual          L2-NORM 
          0                 1           2             2   13     1       0.5626671385E-02       2   13    1         0.3170956184E+00      0.7680202260E+00
          0                 2           2             2   13     1      -0.5234523362E-03       2   13    1        -0.3032297302E-01      0.7552024134E-01
          0                 3           1             2    2     1       0.3527220036E-04       4   13    1         0.2022693333E-02      0.5167879134E-02

    ------------------------------------------------
       NWT REQUIRED            3 OUTER ITERATIONS 
       AND A TOTAL OF          5 INNER ITERATIONS.
    ------------------------------------------------

 NO OUTPUT CONTROL FOR STRESS PERIOD    3   TIME STEP    6
 
 SOLVING FOR HEAD 
                                                   Max.-Head-Change                         Max.-Flux-Residual
  Residual-Control   Outer-Iter.   Inner-Iter.     Column Row Layer    Maximum-Head-Change  Column Row Layer    Maximum-Flux-Residual          L2-NORM 
          0                 1           2             2    2     1       0.5289563836E-02       2   13    1         0.2931746523E+00      0.7345794353E+00
          0                 2           2             2    2     1      -0.5145314320E-03       2   13    1        -0.2804397696E-01      0.7231642811E-01
          0                 3           1             2    2     1       0.3503767206E-04       2    2    1         0.1933947734E-02      0.4958340866E-02

    ------------------------------------------------
       NWT REQUIRED            3 OUTER ITERATIONS 
       AND A TOTAL OF          5 INNER ITERATIONS.
    ------------------------------------------------

 NO OUTPUT CONTROL FOR STRESS PERIOD    3   TIME STEP    7
 
 SOLVING FOR HEAD 
                                                   Max.-Head-Change                         Max.-Flux-Residual
  Residual-Control   Outer-Iter.   Inner-Iter.     Column Row Layer    Maximum-Head-Change  Column Row Layer    Maximum-Flux-Residual          L2-NORM 
          0                 1           2             2    2     1       0.5254572937E-02       2    2    1         0.2744371693E+00      0.7046593575E+00
          0                 2           2             2    2     1      -0.5111277509E-03       2    2    1        -0.2744378923E-01      0.6944692002E-01
          0                 3           1             2    2     1       0.3480589461E-04       2    2    1         0.1921065396E-02      0.4767317497E-02

    ------------------------------------------------
       NWT REQUIRED            3 OUTER ITERATIONS 
       AND A TOTAL OF          5 INNER ITERATIONS.
    ------------------------------------------------

 NO OUTPUT CONTROL FOR STRESS PERIOD    3   TIME STEP    8
 
 SOLVING FOR HEAD 
                                                   Max.-Head-Change                         Max.-Flux-Residual
  Residual-Control   Outer-Iter.   Inner-Iter.     Column Row Layer    Maximum-Head-Change  Column Row Layer    Maximum-Flux-Residual          L2-NORM 
          0                 1           2             2    2     1       0.5220076986E-02       2    2    1         0.2726229308E+00      0.6779037349E+00
          0                 2           2             2    2     1      -0.5077722155E-03       2    2    1        -0.2726236405E-01      0.6688224341E-01
          0                 3           1             2    2     1       0.3457739485E-04       2    2    1         0.1908365633E-02      0.4597583739E-02

    ------------------------------------------------
       NWT REQUIRED            3 OUTER ITERATIONS 
       AND A TOTAL OF          5 INNER ITERATIONS.
    ------------------------------------------------

 NO OUTPUT CONTROL FOR STRESS PERIOD    3   TIME STEP    9
 
 SOLVING FOR HEAD 
                                                   Max.-Head-Change                         Max.-Flux-Residual
  Residual-Control   Outer-Iter.   Inner-Iter.     Column Row Layer    Maximum-Head-Change  Column Row Layer    Maximum-Flux-Residual          L2-NORM 
          0                 1           2             2    2     1       0.5186067953E-02       2    2    1         0.2708343548E+00      0.6539757095E+00
          0                 2           2             2    2     1      -0.5044640442E-03       2    2    1        -0.2708350515E-01      0.6459023512E-01
          0                 3           1             2    2     1       0.3435212095E-04       2    2    1         0.1895845522E-02      0.4446521841E-02

    ------------------------------------------------
       NWT REQUIRED            3 OUTER ITERATIONS 
       AND A TOTAL OF          5 INNER ITERATIONS.
    ------------------------------------------------

 NO OUTPUT CONTROL FOR STRESS PERIOD    3   TIME STEP   10
 
 SOLVING FOR HEAD 
                                                   Max.-Head-Change                         Max.-Flux-Residual
  Residual-Control   Outer-Iter.   Inner-Iter.     Column Row Layer    Maximum-Head-Change  Column Row Layer    Maximum-Flux-Residual          L2-NORM 
          0                 1           2             2    2     1       0.5152538752E-02       2    2    1         0.2690710250E+00      0.6325552764E+00
          0                 2           2             2    2     1      -0.5012025483E-03       2    2    1        -0.2690717091E-01      0.6253668831E-01
          0                 3           1             2    2     1       0.3413002557E-04       2    2    1         0.1883502138E-02      0.4311292154E-02

    ------------------------------------------------
       NWT REQUIRED            3 OUTER ITERATIONS 
       AND A TOTAL OF          5 INNER ITERATIONS.
    ------------------------------------------------

 NO OUTPUT CONTROL FOR STRESS PERIOD    3   TIME STEP   11
 
 SOLVING FOR HEAD 
                                                   Max.-Head-Change                         Max.-Flux-Residual
  Residual-Control   Outer-Iter.   Inner-Iter.     Column Row Layer    Maximum-Head-Change  Column Row Layer    Maximum-Flux-Residual          L2-NORM 
          0                 1           2             2    2     1       0.5119394464E-02       2    2    1         0.2673280186E+00      0.6133688708E+00
          0                 2           2             2    2     1      -0.4979784937E-03       2    2    1        -0.2673286902E-01      0.6071032095E-01
          0                 3           1             2    2     1       0.3391047916E-04       2    2    1         0.1871300988E-02      0.4190833740E-02

    ------------------------------------------------
       NWT REQUIRED            3 OUTER ITERATIONS 
       AND A TOTAL OF          5 INNER ITERATIONS.
    ------------------------------------------------

 NO OUTPUT CONTROL FOR STRESS PERIOD    3   TIME STEP   12
 
 SOLVING FOR HEAD 
                                                   Max.-Head-Change                         Max.-Flux-Residual
  Residual-Control   Outer-Iter.   Inner-Iter.     Column Row Layer    Maximum-Head-Change  Column Row Layer    Maximum-Flux-Residual          L2-NORM 
          0                 1           2             2    2     1       0.5086715367E-02       2    2    1         0.2656095247E+00      0.5961580603E+00
          0                 2           2             2    2     1      -0.4947996906E-03       2    2    1        -0.2656101843E-01      0.5905051561E-01
          0                 3           1             2    2     1       0.3369401494E-04       2    2    1         0.1859271464E-02      0.4082240452E-02

    ------------------------------------------------
       NWT REQUIRED            3 OUTER ITERATIONS 
       AND A TOTAL OF          5 INNER ITERATIONS.
    ------------------------------------------------

 NO OUTPUT CONTROL FOR STRESS PERIOD    3   TIME STEP   13
 
 SOLVING FOR HEAD 
                                                   Max.-Head-Change                         Max.-Flux-Residual
  Residual-Control   Outer-Iter.   Inner-Iter.     Column Row Layer    Maximum-Head-Change  Column Row Layer    Maximum-Flux-Residual          L2-NORM 
          0                 1           2             2    2     1       0.5054493947E-02       2    2    1         0.2639151505E+00      0.5807039200E+00
          0                 2           2             2    2     1      -0.4916654073E-03       2    2    1        -0.2639157983E-01      0.5756939094E-01
          0                 3           1             2    2     1       0.3348058180E-04       2    2    1         0.1847410763E-02      0.3983489931E-02

    ------------------------------------------------
       NWT REQUIRED            3 OUTER ITERATIONS 
       AND A TOTAL OF          5 INNER ITERATIONS.
    ------------------------------------------------

 NO OUTPUT CONTROL FOR STRESS PERIOD    3   TIME STEP   14
 
 SOLVING FOR HEAD 
                                                   Max.-Head-Change                         Max.-Flux-Residual
  Residual-Control   Outer-Iter.   Inner-Iter.     Column Row Layer    Maximum-Head-Change  Column Row Layer    Maximum-Flux-Residual          L2-NORM 
          0                 1           2             2    2     1       0.5022723226E-02       2    2    1         0.2622445063E+00      0.5668089653E+00
          0                 2           2             2    2     1      -0.4885749653E-03       2    2    1        -0.2622451426E-01      0.5627819909E-01
          0                 3           1             2    2     1       0.3327013430E-04       2    2    1         0.1835716181E-02      0.3898653882E-02

    ------------------------------------------------
       NWT REQUIRED            3 OUTER ITERATIONS 
       AND A TOTAL OF          5 INNER ITERATIONS.
    ------------------------------------------------

 NO OUTPUT CONTROL FOR STRESS PERIOD    3   TIME STEP   15
 
 SOLVING FOR HEAD 
                                                   Max.-Head-Change                         Max.-Flux-Residual
  Residual-Control   Outer-Iter.   Inner-Iter.     Column Row Layer    Maximum-Head-Change  Column Row Layer    Maximum-Flux-Residual          L2-NORM 
          0                 1           2             2    2     1       0.4991308793E-02       2    2    1         0.2605926743E+00      0.5542622282E+00
          0                 2           2             2    2     1      -0.4855191807E-03       2    2    1        -0.2605932995E-01      0.5503397538E-01
          0                 3           1             2    2     1       0.3306204690E-04       2    2    1         0.1824153299E-02      0.3817575781E-02

    ------------------------------------------------
       NWT REQUIRED            3 OUTER ITERATIONS 
       AND A TOTAL OF          5 INNER ITERATIONS.
    ------------------------------------------------

 NO OUTPUT CONTROL FOR STRESS PERIOD    3   TIME STEP   16
 
 SOLVING FOR HEAD 
                                                   Max.-Head-Change                         Max.-Flux-Residual
  Residual-Control   Outer-Iter.   Inner-Iter.     Column Row Layer    Maximum-Head-Change  Column Row Layer    Maximum-Flux-Residual          L2-NORM 
          0                 1           2             2    2     1       0.4960331393E-02       2    2    1         0.2589638713E+00      0.5429197800E+00
          0                 2           2             2    2     1      -0.4825059073E-03       2    2    1        -0.2589644853E-01      0.5394235783E-01
          0                 3           1             2    2     1       0.3285685448E-04       2    2    1         0.1812751593E-02      0.3744132130E-02

    ------------------------------------------------
       NWT REQUIRED            3 OUTER ITERATIONS 
       AND A TOTAL OF          5 INNER ITERATIONS.
    ------------------------------------------------

 NO OUTPUT CONTROL FOR STRESS PERIOD    3   TIME STEP   17
 
 SOLVING FOR HEAD 
                                                   Max.-Head-Change                         Max.-Flux-Residual
  Residual-Control   Outer-Iter.   Inner-Iter.     Column Row Layer    Maximum-Head-Change  Column Row Layer    Maximum-Flux-Residual          L2-NORM 
          0                 1           2             2    2     1       0.4929772263E-02       2    2    1         0.2573570938E+00      0.5326596467E+00
          0                 2           2             2    2     1      -0.4795333213E-03       2    2    1        -0.2573576972E-01      0.5295893554E-01
          0                 3           1             2    2     1       0.3265443233E-04       2    2    1         0.1801504079E-02      0.3679158450E-02

    ------------------------------------------------
       NWT REQUIRED            3 OUTER ITERATIONS 
       AND A TOTAL OF          5 INNER ITERATIONS.
    ------------------------------------------------

 NO OUTPUT CONTROL FOR STRESS PERIOD    3   TIME STEP   18
 
 SOLVING FOR HEAD 
                                                   Max.-Head-Change                         Max.-Flux-Residual
  Residual-Control   Outer-Iter.   Inner-Iter.     Column Row Layer    Maximum-Head-Change  Column Row Layer    Maximum-Flux-Residual          L2-NORM 
          0                 1           2             2    2     1       0.4899649239E-02       2    2    1         0.2557732717E+00      0.5233501386E+00
          0                 2           2             2    2     1      -0.4766031567E-03       2    2    1        -0.2557738645E-01      0.5206266133E-01
          0                 3           1             2    2     1       0.3245489949E-04       2    2    1         0.1790417267E-02      0.3619169831E-02

    ------------------------------------------------
       NWT REQUIRED            3 OUTER ITERATIONS 
       AND A TOTAL OF          5 INNER ITERATIONS.
    ------------------------------------------------

 NO OUTPUT CONTROL FOR STRESS PERIOD    3   TIME STEP   19
 
 SOLVING FOR HEAD 
                                                   Max.-Head-Change                         Max.-Flux-Residual
  Residual-Control   Outer-Iter.   Inner-Iter.     Column Row Layer    Maximum-Head-Change  Column Row Layer    Maximum-Flux-Residual          L2-NORM 
          0                 1           2             2    2     1       0.4869943683E-02       2    2    1         0.2542114270E+00      0.5148868337E+00
          0                 2           2             2    2     1      -0.4737136008E-03       2    2    1        -0.2542120097E-01      0.5124791680E-01
          0                 3           1             2    2     1       0.3225813122E-04       2    2    1         0.1779484282E-02      0.3565172528E-02

    ------------------------------------------------
       NWT REQUIRED            3 OUTER ITERATIONS 
       AND A TOTAL OF          5 INNER ITERATIONS.
    ------------------------------------------------

 NO OUTPUT CONTROL FOR STRESS PERIOD    3   TIME STEP   20
 
 SOLVING FOR HEAD 
                                                   Max.-Head-Change                         Max.-Flux-Residual
  Residual-Control   Outer-Iter.   Inner-Iter.     Column Row Layer    Maximum-Head-Change  Column Row Layer    Maximum-Flux-Residual          L2-NORM 
          0                 1           2             2    2     1       0.4840560974E-02       2    2    1         0.2526666706E+00      0.5071619471E+00
          0                 2           2             2    2     1      -0.4708554493E-03       2    2    1        -0.2526672433E-01      0.5050227929E-01
          0                 3           1             2    2     1       0.3206350225E-04       2    2    1         0.1768670931E-02      0.3515572194E-02

    ------------------------------------------------
       NWT REQUIRED            3 OUTER ITERATIONS 
       AND A TOTAL OF          5 INNER ITERATIONS.
    ------------------------------------------------

 NO OUTPUT CONTROL FOR STRESS PERIOD    3   TIME STEP   21
 
 SOLVING FOR HEAD 
                                                   Max.-Head-Change                         Max.-Flux-Residual
  Residual-Control   Outer-Iter.   Inner-Iter.     Column Row Layer    Maximum-Head-Change  Column Row Layer    Maximum-Flux-Residual          L2-NORM 
          0                 1           2             2    2     1       0.4811582868E-02       2    2    1         0.2511432102E+00      0.5000934682E+00
          0                 2           2             2    2     1      -0.4680366543E-03       2    2    1        -0.2511437728E-01      0.4982003494E-01
          0                 3           1             2    2     1       0.3187155241E-04       2    2    1         0.1758006622E-02      0.3470108355E-02

    ------------------------------------------------
       NWT REQUIRED            3 OUTER ITERATIONS 
       AND A TOTAL OF          5 INNER ITERATIONS.
    ------------------------------------------------

 NO OUTPUT CONTROL FOR STRESS PERIOD    3   TIME STEP   22
 
 SOLVING FOR HEAD 
                                                   Max.-Head-Change                         Max.-Flux-Residual
  Residual-Control   Outer-Iter.   Inner-Iter.     Column Row Layer    Maximum-Head-Change  Column Row Layer    Maximum-Flux-Residual          L2-NORM 
          0                 1           2             2    2     1       0.4783003638E-02       2    2    1         0.2496407281E+00      0.4936161345E+00
          0                 2           2             2    2     1      -0.4652566606E-03       2    2    1        -0.2496412814E-01      0.4919397637E-01
          0                 3           1             2    2     1       0.3168224551E-04       2    2    1         0.1747489204E-02      0.3428257806E-02

    ------------------------------------------------
       NWT REQUIRED            3 OUTER ITERATIONS 
       AND A TOTAL OF          5 INNER ITERATIONS.
    ------------------------------------------------

 NO OUTPUT CONTROL FOR STRESS PERIOD    3   TIME STEP   23
 
 SOLVING FOR HEAD 
                                                   Max.-Head-Change                         Max.-Flux-Residual
  Residual-Control   Outer-Iter.   Inner-Iter.     Column Row Layer    Maximum-Head-Change  Column Row Layer    Maximum-Flux-Residual          L2-NORM 
          0                 1           2             2    2     1       0.4754729379E-02       2    2    1         0.2481543699E+00      0.4876501312E+00
          0                 2           2             2    2     1      -0.4625063320E-03       2    2    1        -0.2481549137E-01      0.4861593141E-01
          0                 3           1             2    2     1       0.3149495885E-04       2    2    1         0.1737084640E-02      0.3389263118E-02

    ------------------------------------------------
       NWT REQUIRED            3 OUTER ITERATIONS 
       AND A TOTAL OF          5 INNER ITERATIONS.
    ------------------------------------------------

 NO OUTPUT CONTROL FOR STRESS PERIOD    3   TIME STEP   24
 
 SOLVING FOR HEAD 
                                                   Max.-Head-Change                         Max.-Flux-Residual
  Residual-Control   Outer-Iter.   Inner-Iter.     Column Row Layer    Maximum-Head-Change  Column Row Layer    Maximum-Flux-Residual          L2-NORM 
          0                 1           2             2    2     1       0.4726929277E-02       2    2    1         0.2466929387E+00      0.4821481880E+00
          0                 2           2             2    2     1      -0.4598021270E-03       2    2    1        -0.2466934738E-01      0.4808266070E-01
          0                 3           1             2    2     1       0.3131081237E-04       2    2    1         0.1726854563E-02      0.3353692738E-02

    ------------------------------------------------
       NWT REQUIRED            3 OUTER ITERATIONS 
       AND A TOTAL OF          5 INNER ITERATIONS.
    ------------------------------------------------

 NO OUTPUT CONTROL FOR STRESS PERIOD    3   TIME STEP   25
 
 SOLVING FOR HEAD 
                                                   Max.-Head-Change                         Max.-Flux-Residual
  Residual-Control   Outer-Iter.   Inner-Iter.     Column Row Layer    Maximum-Head-Change  Column Row Layer    Maximum-Flux-Residual          L2-NORM 
          0                 1           2             2    2     1       0.4699421722E-02       2    2    1         0.2452469772E+00      0.4770442248E+00
          0                 2           2             2    2     1      -0.4571263784E-03       2    2    1        -0.2452475033E-01      0.4758678700E-01
          0                 3           1             2    2     1       0.3112860401E-04       2    2    1         0.1716732765E-02      0.3320470972E-02

    ------------------------------------------------
       NWT REQUIRED            3 OUTER ITERATIONS 
       AND A TOTAL OF          5 INNER ITERATIONS.
    ------------------------------------------------

 NO OUTPUT CONTROL FOR STRESS PERIOD    3   TIME STEP   26
 
 SOLVING FOR HEAD 
                                                   Max.-Head-Change                         Max.-Flux-Residual
  Residual-Control   Outer-Iter.   Inner-Iter.     Column Row Layer    Maximum-Head-Change  Column Row Layer    Maximum-Flux-Residual          L2-NORM 
          0                 1           2             2    2     1       0.4672289313E-02       2    2    1         0.2438207414E+00      0.4723097888E+00
          0                 2           2             2    2     1      -0.4544871218E-03       2    2    1        -0.2438212587E-01      0.4712585441E-01
          0                 3           1             2    2     1       0.3094888095E-04       2    2    1         0.1706749076E-02      0.3289020290E-02

    ------------------------------------------------
       NWT REQUIRED            3 OUTER ITERATIONS 
       AND A TOTAL OF          5 INNER ITERATIONS.
    ------------------------------------------------

 NO OUTPUT CONTROL FOR STRESS PERIOD    3   TIME STEP   27
 
 SOLVING FOR HEAD 
                                                   Max.-Head-Change                         Max.-Flux-Residual
  Residual-Control   Outer-Iter.   Inner-Iter.     Column Row Layer    Maximum-Head-Change  Column Row Layer    Maximum-Flux-Residual          L2-NORM 
          0                 1           2             2    2     1       0.4645525758E-02       2    2    1         0.2424139564E+00      0.4678978151E+00
          0                 2           2             2    2     1      -0.4518837448E-03       2    2    1        -0.2424144653E-01      0.4669636348E-01
          0                 3           1             2    2     1       0.3077160060E-04       2    2    1         0.1696901519E-02      0.3260156753E-02

    ------------------------------------------------
       NWT REQUIRED            3 OUTER ITERATIONS 
       AND A TOTAL OF          5 INNER ITERATIONS.
    ------------------------------------------------

 NO OUTPUT CONTROL FOR STRESS PERIOD    3   TIME STEP   28
 
 SOLVING FOR HEAD 
                                                   Max.-Head-Change                         Max.-Flux-Residual
  Residual-Control   Outer-Iter.   Inner-Iter.     Column Row Layer    Maximum-Head-Change  Column Row Layer    Maximum-Flux-Residual          L2-NORM 
          0                 1           2             2    2     1       0.4619038775E-02       2    2    1         0.2410217382E+00      0.4637718918E+00
          0                 2           2             2    2     1      -0.4493072702E-03       2    2    1        -0.2410222384E-01      0.4629384006E-01
          0                 3           1             2    2     1       0.3059615187E-04       2    2    1         0.1687155921E-02      0.3232911040E-02

    ------------------------------------------------
       NWT REQUIRED            3 OUTER ITERATIONS 
       AND A TOTAL OF          5 INNER ITERATIONS.
    ------------------------------------------------

 NO OUTPUT CONTROL FOR STRESS PERIOD    3   TIME STEP   29
 
 SOLVING FOR HEAD 
                                                   Max.-Head-Change                         Max.-Flux-Residual
  Residual-Control   Outer-Iter.   Inner-Iter.     Column Row Layer    Maximum-Head-Change  Column Row Layer    Maximum-Flux-Residual          L2-NORM 
          0                 1           2             4   13     1       0.1233761415E-01       4   13    1         0.7106686467E+00      0.1463897233E+01
          0                 2           2             4   13     1      -0.1186788795E-02       4   13    1        -0.7028720743E-01      0.1429485621E+00
          0                 3           1             4   13     1       0.7956404314E-04       4   13    1         0.4844754774E-02      0.9686384063E-02

    ------------------------------------------------
       NWT REQUIRED            3 OUTER ITERATIONS 
       AND A TOTAL OF          5 INNER ITERATIONS.
    ------------------------------------------------

 NO OUTPUT CONTROL FOR STRESS PERIOD    3   TIME STEP   30



 STREAM LISTING     PERIOD      3   STEP       30

 LAYER ROW COL. STREAM  RCH.  FLOW INTO     FLOW TO   FLOW OUT OF   OVRLND.     DIRECT     STREAM       STREAM     STREAM     STREAM   STREAMBED  STREAMBED
                SEG.NO.  NO.  STRM. RCH.    AQUIFER    STRM. RCH.    RUNOFF     PRECIP       ET          HEAD       DEPTH      WIDTH   CONDCTNC.   GRADIENT

   1    1    1     1     1    7.2502E+01  4.1419E-01   7.2087E+01  0.000E+00  0.000E+00  0.000E+00  1.09472E+03  1.670E+00  1.971E+01  8.868E-02  1.557E+00
   1    2    2     1     2    7.2087E+01  6.4160E-01   7.1446E+01  0.000E+00  0.000E+00  0.000E+00  1.08972E+03  1.665E+00  1.965E+01  1.375E-01  1.555E+00
   1    3    3     1     3    7.1446E+01  5.4733E-01   7.0899E+01  0.000E+00  0.000E+00  0.000E+00  1.08408E+03  1.658E+00  1.958E+01  1.175E-01  1.553E+00
   1    3    4     1     4    7.0899E+01  5.0414E-01   7.0394E+01  0.000E+00  0.000E+00  0.000E+00  1.07906E+03  1.652E+00  1.953E+01  1.084E-01  1.551E+00
   1    4    5     2     1    6.8394E+01  4.0598E-01   6.7988E+01  0.000E+00  0.000E+00  0.000E+00  1.07414E+03  2.205E+00  1.200E+01  7.800E-02  1.735E+00
   1    5    6     2     2    6.7988E+01  3.1187E-01   6.7677E+01  0.000E+00  0.000E+00  0.000E+00  1.06871E+03  2.198E+00  1.200E+01  6.000E-02  1.733E+00
   1    6    6     2     3    6.7677E+01  3.1151E-01   6.7365E+01  0.000E+00  0.000E+00  0.000E+00  1.06398E+03  2.192E+00  1.200E+01  6.000E-02  1.731E+00
   1    7    6     2     4    6.7365E+01  3.1115E-01   6.7054E+01  0.000E+00  0.000E+00  0.000E+00  1.05926E+03  2.186E+00  1.200E+01  6.000E-02  1.729E+00
   1    8    6     2     5    6.7054E+01  3.1078E-01   6.6743E+01  0.000E+00  0.000E+00  0.000E+00  1.05454E+03  2.180E+00  1.200E+01  6.000E-02  1.727E+00
   1    3    5     3     1    2.0000E+00  2.8252E-01   1.7175E+00  0.000E+00  0.000E+00  0.000E+00  1.07555E+03  1.909E+00  9.636E+00  7.227E-02  1.955E+00
   1    3    6     3     2    1.7175E+00  2.4905E-01   1.4684E+00  0.000E+00  0.000E+00  0.000E+00  1.07264E+03  1.727E+00  8.909E+00  6.682E-02  1.864E+00
   1    3    7     3     3    1.4684E+00  1.9718E-01   1.2712E+00  0.000E+00  0.000E+00  0.000E+00  1.06987E+03  1.555E+00  8.218E+00  5.547E-02  1.777E+00
   1    4    8     3     4    1.2712E+00  2.2567E-01   1.0456E+00  0.000E+00  0.000E+00  0.000E+00  1.06682E+03  1.364E+00  7.455E+00  6.709E-02  1.682E+00
   1    5    8     3     5    1.0456E+00  1.5790E-01   8.8768E-01  0.000E+00  0.000E+00  0.000E+00  1.06362E+03  1.164E+00  6.655E+00  4.991E-02  1.582E+00
   1    6    8     3     6    8.8768E-01  5.5980E-02   8.3170E-01  0.000E+00  0.000E+00  0.000E+00  1.06158E+03  1.036E+00  6.145E+00  1.844E-02  1.518E+00
   1    5   10     4     1    1.0000E+01  9.0919E-02   9.9091E+00  0.000E+00  0.000E+00  0.000E+00  1.07836E+03  6.368E-01  1.000E+01  2.500E-02  1.212E+00
   1    5    9     4     2    9.9091E+00  1.8158E-01   9.7275E+00  0.000E+00  0.000E+00  0.000E+00  1.07154E+03  6.315E-01  1.000E+01  5.000E-02  1.211E+00
   1    6    8     4     3    9.7275E+00  1.2689E-01   9.6006E+00  0.000E+00  0.000E+00  0.000E+00  1.06381E+03  6.256E-01  1.000E+01  3.500E-02  1.209E+00
   1    6    8     5     1    1.0432E+01  2.2686E-01   1.0205E+01  0.000E+00  0.000E+00  0.000E+00  1.05868E+03  6.790E-01  1.542E+01  6.166E-02  1.226E+00
   1    7    7     5     2    1.0205E+01  2.7894E-01   9.9265E+00  0.000E+00  0.000E+00  0.000E+00  1.05417E+03  6.732E-01  1.519E+01  7.594E-02  1.224E+00
   1    8    7     5     3    9.9265E+00  1.9221E-01   9.7343E+00  0.000E+00  0.000E+00  0.000E+00  1.04992E+03  6.676E-01  1.497E+01  5.241E-02  1.223E+00
   1    8    6     5     4    9.7343E+00  1.3577E-01   9.5985E+00  0.000E+00  0.000E+00  0.000E+00  1.04691E+03  6.637E-01  1.482E+01  3.706E-02  1.221E+00
   1    9    6     6     1    7.6342E+01  3.2296E-01   7.6019E+01  0.000E+00  0.000E+00  0.000E+00  1.04511E+03  2.383E+00  1.200E+01  6.000E-02  1.794E+00
   1   10    7     6     2    7.6019E+01  3.2260E-01   7.5696E+01  0.000E+00  0.000E+00  0.000E+00  1.04056E+03  2.377E+00  1.200E+01  6.000E-02  1.792E+00
   1   11    7     6     3    7.5696E+01  3.2224E-01   7.5374E+01  0.000E+00  0.000E+00  0.000E+00  1.03601E+03  2.371E+00  1.200E+01  6.000E-02  1.790E+00
   1   12    7     6     4    7.5374E+01  3.2187E-01   7.5052E+01  0.000E+00  0.000E+00  0.000E+00  1.03146E+03  2.365E+00  1.200E+01  6.000E-02  1.788E+00
   1   13    7     6     5    7.5052E+01  2.7035E-02   7.5025E+01  0.000E+00  0.000E+00  0.000E+00  1.02827E+03  2.361E+00  1.200E+01  2.400E-02  3.755E-01
   1   14    9     7     1    1.5000E+02  1.3312E+00   1.4867E+02  0.000E+00  0.000E+00  0.000E+00  1.03987E+03  2.288E+00  5.529E+01  5.593E-01  7.933E-01
   1   13    8     7     2    1.4867E+02  1.8193E+00   1.4685E+02  0.000E+00  0.000E+00  0.000E+00  1.03478E+03  2.279E+00  5.526E+01  6.148E-01  9.864E-01
   1   13    7     7     3    1.4685E+02  1.4219E+00   1.4543E+02  0.000E+00  0.000E+00  0.000E+00  1.02969E+03  2.271E+00  5.522E+01  5.585E-01  8.487E-01
   1   13    6     8     1    2.2045E+02  1.0869E+00   2.1937E+02  0.000E+00  0.000E+00  0.000E+00  1.02513E+03  3.251E+00  4.715E+01  4.804E-01  7.541E-01
   1   13    5     8     2    2.1937E+02  2.5867E-01   2.1911E+02  0.000E+00  0.000E+00  0.000E+00  1.01887E+03  3.248E+00  4.709E+01  4.799E-01  1.797E-01
   1   13    4     8     3    2.1911E+02 -1.9098E+00   2.2102E+02  0.000E+00  0.000E+00  0.000E+00  1.01263E+03  3.252E+00  4.716E+01  4.806E+00 -1.325E-01
   1   13    3     8     4    2.2102E+02 -3.1179E+00   2.2413E+02  0.000E+00  0.000E+00  0.000E+00  1.00639E+03  3.266E+00  4.736E+01  4.826E+00 -2.154E-01
   1   13    2     8     5    2.2413E+02 -1.9270E+00   2.2606E+02  0.000E+00  0.000E+00  0.000E+00  1.00015E+03  3.280E+00  4.756E+01  4.846E+00 -1.325E-01
   1   13    1     8     6    2.2606E+02 -1.5653E+00   2.2763E+02  0.000E+00  0.000E+00  0.000E+00  9.95164E+02  3.289E+00  4.770E+01  2.916E+00 -1.789E-01





UNSATURATED ZONE PACKAGE VOLUMETRIC BUDGET FOR  TIME STEP    30 STRESS PERIOD    3
  ------------------------------------------------------------------------------



     CUMULATIVE VOLUMES      L**3       RATES FOR THIS TIME STEP      L**3/T
     ------------------                 ------------------------

           IN:                                      IN:
           ---                                      ---
        INFILTRATION =     4531073.7455          INFILTRATION =           0.8475

          OUT:                                     OUT:
          ----                                     ----
              UZF ET =     3944959.2146                UZF ET =           0.7500
        UZF RECHARGE =       73224.0000          UZF RECHARGE =       0.0000E+00

            IN - OUT =      512890.5308              IN - OUT =       9.7500E-02

          STORAGE:                                 STORAGE:
          --------                                 --------
      STORAGE CHANGE =      512890.5771        STORAGE CHANGE =       9.7500E-02

 PERCENT DISCREPANCY IS DIFFERENCE BETWEEN IN-OUT MINUS CHANGE IN STORAGE
 DIVIDED BY THE AVERAGE OF IN AND OUT TIMES 100

 PERCENT DISCREPANCY =          -0.00     PERCENT DISCREPANCY =           0.00






1
  VOLUMETRIC BUDGET FOR AGRICULTURAL FIELDS AT  END OF TIME STEP   30, STRESS PERIOD   3
  ------------------------------------------------------------------------------

     CUMULATIVE VOLUMES      L**3       RATES FOR THIS TIME STEP      L**3/T
     ------------------                 ------------------------

           IN:                                      IN:
           ---                                      ---
               AG WELLS  =           0.0000                 AG WELLS  =           0.0000
      DIVERSION SEGMENTS =           0.0000        DIVERSION SEGMENTS =           0.0000
       IRRIGATION PONDS  =           0.0000         IRRIGATION PONDS  =           0.0000
           GW IRRIGATION =           0.0000             GW IRRIGATION =           0.0000
           SW IRRIGATION =           0.0000             SW IRRIGATION =           0.0000
        SYSTEM LOSSES GW =           0.0000          SYSTEM LOSSES GW =           0.0000
        SYSTEM LOSSES SW =           0.0000          SYSTEM LOSSES SW =           0.0000

                TOTAL IN =           0.0000                  TOTAL IN =           0.0000

          OUT:                                     OUT:
          ----                                     ----
               AG WELLS  =           0.0000                 AG WELLS  =           0.0000
      DIVERSION SEGMENTS =           0.0000        DIVERSION SEGMENTS =           0.0000
       IRRIGATION PONDS  =           0.0000         IRRIGATION PONDS  =           0.0000
           GW IRRIGATION =           0.0000             GW IRRIGATION =           0.0000
           SW IRRIGATION =           0.0000             SW IRRIGATION =           0.0000
        SYSTEM LOSSES GW =           0.0000          SYSTEM LOSSES GW =           0.0000
        SYSTEM LOSSES SW =           0.0000          SYSTEM LOSSES SW =           0.0000

               TOTAL OUT =           0.0000                 TOTAL OUT =           0.0000

                IN - OUT =           0.0000                  IN - OUT =           0.0000

     PERCENT DISCREPANCY =           0.00         PERCENT DISCREPANCY =           0.00



1
  VOLUMETRIC BUDGET FOR ENTIRE MODEL AT END OF TIME STEP   30, STRESS PERIOD   3
  ------------------------------------------------------------------------------

     CUMULATIVE VOLUMES      L**3       RATES FOR THIS TIME STEP      L**3/T
     ------------------                 ------------------------

           IN:                                      IN:
           ---                                      ---
             STORAGE     =     3047021.2500               STORAGE     =           0.4724
       CONSTANT HEAD     =           0.0000         CONSTANT HEAD     =           0.0000
     HEAD DEP BOUNDS     =     1525869.2500       HEAD DEP BOUNDS     =           0.2854
      STREAM LEAKAGE     =    63536332.0000        STREAM LEAKAGE     =          13.3947
        UZF RECHARGE     =       73223.9531          UZF RECHARGE     =           0.0000
               GW ET     =           0.0000                 GW ET     =           0.0000
     SURFACE LEAKAGE     =           0.0000       SURFACE LEAKAGE     =           0.0000
           AG WELLS      =           0.0000             AG WELLS      =           0.0000

                TOTAL IN =    68182448.0000                  TOTAL IN =          14.1525

          OUT:                                     OUT:
          ----                                     ----
             STORAGE     =    11250393.0000               STORAGE     =           5.3403
       CONSTANT HEAD     =           0.0000         CONSTANT HEAD     =           0.0000
     HEAD DEP BOUNDS     =     1549889.6250       HEAD DEP BOUNDS     =           0.2926
      STREAM LEAKAGE     =    55383872.0000        STREAM LEAKAGE     =           8.5200
        UZF RECHARGE     =           0.0000          UZF RECHARGE     =           0.0000
               GW ET     =         620.0435                 GW ET     =       9.2744E-04
     SURFACE LEAKAGE     =           0.0000       SURFACE LEAKAGE     =           0.0000
           AG WELLS      =           0.0000             AG WELLS      =           0.0000

               TOTAL OUT =    68184776.0000                 TOTAL OUT =          14.1539

                IN - OUT =       -2328.0000                  IN - OUT =      -1.3819E-03

     PERCENT DISCREPANCY =          -0.00         PERCENT DISCREPANCY =          -0.01






         TIME SUMMARY AT END OF TIME STEP   30 IN STRESS PERIOD    3
                    SECONDS     MINUTES      HOURS       DAYS        YEARS
                    -----------------------------------------------------------
   TIME STEP LENGTH  87667.      1461.1      24.352      1.0147     2.77799E-03
 STRESS PERIOD TIME 2.63000E+06  43833.      730.56      30.440     8.33397E-02
         TOTAL TIME 5.34640E+06  89107.      1485.1      61.880     0.16942    
1
1
                            STRESS PERIOD NO.    4, LENGTH =   2630000.    
                            -----------------------------------------------

                              NUMBER OF TIME STEPS =    30

                               MULTIPLIER FOR DELT =     1.000

                            INITIAL TIME STEP SIZE =   87666.66    

 REUSING NON-PARAMETER GHB CELLS FROM LAST STRESS PERIOD

      2 GHB CELLS

 REUSING STREAM SEGMENT DATA FROM LAST STRESS PERIOD



            AREAL INFILTRATION RATE
 READING ON UNIT   19 WITH FORMAT: (FREE)              

            1           2           3           4           5           6           7           8           9          10
 ........................................................................................................................
   1   1.0000E-10  2.0000E-10   0.000       0.000       0.000       0.000       0.000       0.000       0.000       0.000    
   2   2.0000E-10  1.0000E-10  2.0000E-10   0.000       0.000      8.0000E-10  8.0000E-10  5.0000E-10   0.000       0.000    
   3    0.000      5.0000E-10  1.0000E-10  1.0000E-10  8.0000E-10  8.0000E-10  5.0000E-10  5.0000E-10   0.000       0.000    
   4   8.0000E-10  5.0000E-10  1.0000E-10  1.0000E-10  1.0000E-10  1.0000E-10  1.0000E-10  1.0000E-10  2.0000E-10   0.000    
   5   8.0000E-10  5.0000E-10  1.0000E-10  1.0000E-10  1.0000E-10  1.0000E-10  1.0000E-10  1.0000E-10  1.0000E-10  1.0000E-10
   6   8.0000E-10  5.0000E-10  5.0000E-10  2.0000E-10  2.0000E-10  1.0000E-10  1.0000E-10  1.0000E-10  1.0000E-10  5.0000E-10
   7   8.0000E-10  5.0000E-10  5.0000E-10  2.0000E-10  2.0000E-10  1.0000E-10  1.0000E-10  2.0000E-10  2.0000E-10   0.000    
   8    0.000      5.0000E-10  5.0000E-10  2.0000E-10  2.0000E-10  1.0000E-10  1.0000E-10  2.0000E-10  5.0000E-10   0.000    
   9    0.000      5.0000E-10  5.0000E-10  2.0000E-10  2.0000E-10  1.0000E-10  1.0000E-10  2.0000E-10  5.0000E-10   0.000    
  10    0.000      5.0000E-10  5.0000E-10  2.0000E-10  2.0000E-10  1.0000E-10  1.0000E-10  2.0000E-10  5.0000E-10  8.0000E-10
  11    0.000      1.0000E-10  1.0000E-10  1.0000E-10  1.0000E-10  1.0000E-10  1.0000E-10  2.0000E-10  5.0000E-10   0.000    
  12   1.0000E-10  1.0000E-10  1.0000E-10  1.0000E-10  1.0000E-10  1.0000E-10  1.0000E-10  1.0000E-10  2.0000E-10   0.000    
  13   1.0000E-10  1.0000E-10  2.0000E-10  2.0000E-10  2.0000E-10  2.0000E-10  2.0000E-10  1.0000E-10  1.0000E-10   0.000    
  14    0.000      2.0000E-10  5.0000E-10  5.0000E-10  5.0000E-10  5.0000E-10  5.0000E-10  2.0000E-10  1.0000E-10   0.000    
  15    0.000       0.000      8.0000E-10  8.0000E-10  8.0000E-10  8.0000E-10   0.000       0.000       0.000       0.000    

                  ET RATE =  5.000000E-10

 USING ET EXTINCTION DEPTH FROM PREVIOUS STRESS PERIOD. CURRENT PERIOD IS:       4

 USING EXTINCTION WATER CONTENT FROM PREVIOUS STRESS PERIOD. CURRENT PERIOD IS:       4

 USING AIR ENTRY PRESSURE FROM PREVIOUS STRESS PERIOD. CURRENT PERIOD IS:       4

 USING ROOT PRESSURE HEAD FROM PREVIOUS STRESS PERIOD. CURRENT PERIOD IS:       4

 USING ROOT ACTIVITY FROM PREVIOUS STRESS PERIOD. CURRENT PERIOD IS:       4

 PROCESSING AG STRESS PERIOD DATA

 READING AG STRESS PERIOD DATA

 READING IRRIGATION WELL

 NO IRRPOND OR REUSING IRRPOND DATA FROM LAST STRESS PERIOD

 END PROCESSING AG STRESS PERIOD DATA OPTIONS
 
 SOLVING FOR HEAD 
                                                   Max.-Head-Change                         Max.-Flux-Residual
  Residual-Control   Outer-Iter.   Inner-Iter.     Column Row Layer    Maximum-Head-Change  Column Row Layer    Maximum-Flux-Residual          L2-NORM 
          0                 1           2             2   13     1       0.1291412629E-01       4   13    1         0.7419828818E+00      0.1544938391E+01
          0                 2           2             4   13     1      -0.1238733571E-02       4   13    1        -0.7337778533E-01      0.1508213686E+00
          0                 3           1             4   13     1       0.8305113103E-04       4   13    1         0.5058067524E-02      0.1021610055E-01

    ------------------------------------------------
       NWT REQUIRED            3 OUTER ITERATIONS 
       AND A TOTAL OF          5 INNER ITERATIONS.
    ------------------------------------------------

 NO OUTPUT CONTROL FOR STRESS PERIOD    4   TIME STEP    1
 
 SOLVING FOR HEAD 
                                                   Max.-Head-Change                         Max.-Flux-Residual
  Residual-Control   Outer-Iter.   Inner-Iter.     Column Row Layer    Maximum-Head-Change  Column Row Layer    Maximum-Flux-Residual          L2-NORM 
          0                 1           2             2   13     1       0.1188956944E-01       2   13    1         0.6731437367E+00      0.1450617488E+01
          0                 2           2             4   13     1      -0.1118345642E-02       4   13    1        -0.6619743502E-01      0.1417642018E+00
          0                 3           1             4   13     1       0.7493531261E-04       4   13    1         0.4560341007E-02      0.9615301970E-02

    ------------------------------------------------
       NWT REQUIRED            3 OUTER ITERATIONS 
       AND A TOTAL OF          5 INNER ITERATIONS.
    ------------------------------------------------

 NO OUTPUT CONTROL FOR STRESS PERIOD    4   TIME STEP    2
 
 SOLVING FOR HEAD 
                                                   Max.-Head-Change                         Max.-Flux-Residual
  Residual-Control   Outer-Iter.   Inner-Iter.     Column Row Layer    Maximum-Head-Change  Column Row Layer    Maximum-Flux-Residual          L2-NORM 
          0                 1           2             2   13     1       0.1094717547E-01       2   13    1         0.6197103584E+00      0.1366416223E+01
          0                 2           2             2   13     1      -0.1014813084E-02       4   13    1        -0.5976387736E-01      0.1336863851E+00
          0                 3           1             4   13     1       0.6771690456E-04       4   13    1         0.4117826474E-02      0.9083156983E-02

    ------------------------------------------------
       NWT REQUIRED            3 OUTER ITERATIONS 
       AND A TOTAL OF          5 INNER ITERATIONS.
    ------------------------------------------------

 NO OUTPUT CONTROL FOR STRESS PERIOD    4   TIME STEP    3
 
 SOLVING FOR HEAD 
                                                   Max.-Head-Change                         Max.-Flux-Residual
  Residual-Control   Outer-Iter.   Inner-Iter.     Column Row Layer    Maximum-Head-Change  Column Row Layer    Maximum-Flux-Residual          L2-NORM 
          0                 1           2             2   13     1       0.1008039780E-01       2   13    1         0.5705666849E+00      0.1291316106E+01
          0                 2           2             2   13     1      -0.9348987528E-03       2   13    1        -0.5439352681E-01      0.1264891544E+00
          0                 3           1             4   13     1       0.6121526068E-04       4   13    1         0.3719379638E-02      0.8608523213E-02

    ------------------------------------------------
       NWT REQUIRED            3 OUTER ITERATIONS 
       AND A TOTAL OF          5 INNER ITERATIONS.
    ------------------------------------------------

 NO OUTPUT CONTROL FOR STRESS PERIOD    4   TIME STEP    4
 
 SOLVING FOR HEAD 
                                                   Max.-Head-Change                         Max.-Flux-Residual
  Residual-Control   Outer-Iter.   Inner-Iter.     Column Row Layer    Maximum-Head-Change  Column Row Layer    Maximum-Flux-Residual          L2-NORM 
          0                 1           2             2   13     1       0.9283192919E-02       2   13    1         0.5253698312E+00      0.1224401291E+01
          0                 2           2             2   13     1      -0.8613180595E-03       2   13    1        -0.5010512775E-01      0.1200812166E+00
          0                 3           1             4   13     1       0.5539122599E-04       4   13    1         0.3362620314E-02      0.8186451892E-02

    ------------------------------------------------
       NWT REQUIRED            3 OUTER ITERATIONS 
       AND A TOTAL OF          5 INNER ITERATIONS.
    ------------------------------------------------

 NO OUTPUT CONTROL FOR STRESS PERIOD    4   TIME STEP    5
 
 SOLVING FOR HEAD 
                                                   Max.-Head-Change                         Max.-Flux-Residual
  Residual-Control   Outer-Iter.   Inner-Iter.     Column Row Layer    Maximum-Head-Change  Column Row Layer    Maximum-Flux-Residual          L2-NORM 
          0                 1           2             2   13     1       0.8549968753E-02       2   13    1         0.4838025886E+00      0.1164812255E+01
          0                 2           2             2   13     1      -0.7935818355E-03       2   13    1        -0.4615758153E-01      0.1143796077E+00
          0                 3           1             2    2     1       0.5140191552E-04       4   13    1         0.3042044049E-02      0.7811545483E-02

    ------------------------------------------------
       NWT REQUIRED            3 OUTER ITERATIONS 
       AND A TOTAL OF          5 INNER ITERATIONS.
    ------------------------------------------------

 NO OUTPUT CONTROL FOR STRESS PERIOD    4   TIME STEP    6
 
 SOLVING FOR HEAD 
                                                   Max.-Head-Change                         Max.-Flux-Residual
  Residual-Control   Outer-Iter.   Inner-Iter.     Column Row Layer    Maximum-Head-Change  Column Row Layer    Maximum-Flux-Residual          L2-NORM 
          0                 1           2             2   13     1       0.7875623901E-02       2   13    1         0.4455755505E+00      0.1111787754E+01
          0                 2           2             2    2     1      -0.7501962072E-03       2   13    1        -0.4252501670E-01      0.1093101347E+00
          0                 3           1             2    2     1       0.5108555886E-04       2    2    1         0.2818321163E-02      0.7479048273E-02

    ------------------------------------------------
       NWT REQUIRED            3 OUTER ITERATIONS 
       AND A TOTAL OF          5 INNER ITERATIONS.
    ------------------------------------------------

 NO OUTPUT CONTROL FOR STRESS PERIOD    4   TIME STEP    7
 
 SOLVING FOR HEAD 
                                                   Max.-Head-Change                         Max.-Flux-Residual
  Residual-Control   Outer-Iter.   Inner-Iter.     Column Row Layer    Maximum-Head-Change  Column Row Layer    Maximum-Flux-Residual          L2-NORM 
          0                 1           2             2    2     1       0.7665179765E-02       2   13    1         0.4104182791E+00      0.1064627762E+01
          0                 2           2             2    2     1      -0.7456151780E-03       2    2    1        -0.4001410411E-01      0.1048040842E+00
          0                 3           1             2    2     1       0.5077360787E-04       2    2    1         0.2800987117E-02      0.7182214321E-02

    ------------------------------------------------
       NWT REQUIRED            3 OUTER ITERATIONS 
       AND A TOTAL OF          5 INNER ITERATIONS.
    ------------------------------------------------

 NO OUTPUT CONTROL FOR STRESS PERIOD    4   TIME STEP    8
 
 SOLVING FOR HEAD 
                                                   Max.-Head-Change                         Max.-Flux-Residual
  Residual-Control   Outer-Iter.   Inner-Iter.     Column Row Layer    Maximum-Head-Change  Column Row Layer    Maximum-Flux-Residual          L2-NORM 
          0                 1           2             2    2     1       0.7618653143E-02       2    2    1         0.3976932392E+00      0.1022691495E+01
          0                 2           2             2    2     1      -0.7410893681E-03       2    2    1        -0.3976946756E-01      0.1007997980E+00
          0                 3           1             2    2     1       0.5046541738E-04       2    2    1         0.2783862583E-02      0.6920533619E-02

    ------------------------------------------------
       NWT REQUIRED            3 OUTER ITERATIONS 
       AND A TOTAL OF          5 INNER ITERATIONS.
    ------------------------------------------------

 NO OUTPUT CONTROL FOR STRESS PERIOD    4   TIME STEP    9
 
 SOLVING FOR HEAD 
                                                   Max.-Head-Change                         Max.-Flux-Residual
  Residual-Control   Outer-Iter.   Inner-Iter.     Column Row Layer    Maximum-Head-Change  Column Row Layer    Maximum-Flux-Residual          L2-NORM 
          0                 1           2             2    2     1       0.7572772008E-02       2    2    1         0.3952808920E+00      0.9853862385E+00
          0                 2           2             2    2     1      -0.7366263468E-03       2    2    1        -0.3952823035E-01      0.9723793948E-01
          0                 3           1             2    2     1       0.5016150286E-04       2    2    1         0.2766975991E-02      0.6686730714E-02

    ------------------------------------------------
       NWT REQUIRED            3 OUTER ITERATIONS 
       AND A TOTAL OF          5 INNER ITERATIONS.
    ------------------------------------------------

 NO OUTPUT CONTROL FOR STRESS PERIOD    4   TIME STEP   10
 
 SOLVING FOR HEAD 
                                                   Max.-Head-Change                         Max.-Flux-Residual
  Residual-Control   Outer-Iter.   Inner-Iter.     Column Row Layer    Maximum-Head-Change  Column Row Layer    Maximum-Flux-Residual          L2-NORM 
          0                 1           2             2    2     1       0.7527438419E-02       2    2    1         0.3928974518E+00      0.9522080601E+00
          0                 2           2             2    2     1      -0.7322165883E-03       2    2    1        -0.3928988391E-01      0.9407308657E-01
          0                 3           1             2    2     1       0.4986121489E-04       2    2    1         0.2750291755E-02      0.6479251116E-02

    ------------------------------------------------
       NWT REQUIRED            3 OUTER ITERATIONS 
       AND A TOTAL OF          5 INNER ITERATIONS.
    ------------------------------------------------

 NO OUTPUT CONTROL FOR STRESS PERIOD    4   TIME STEP   11
 
 SOLVING FOR HEAD 
                                                   Max.-Head-Change                         Max.-Flux-Residual
  Residual-Control   Outer-Iter.   Inner-Iter.     Column Row Layer    Maximum-Head-Change  Column Row Layer    Maximum-Flux-Residual          L2-NORM 
          0                 1           2             2    2     1       0.7482730564E-02       2    2    1         0.3905469617E+00      0.9226726497E+00
          0                 2           2             2    2     1      -0.7278676975E-03       2    2    1        -0.3905483256E-01      0.9125265290E-01
          0                 3           1             2    2     1       0.4956507178E-04       2    2    1         0.2733838170E-02      0.6293967185E-02

    ------------------------------------------------
       NWT REQUIRED            3 OUTER ITERATIONS 
       AND A TOTAL OF          5 INNER ITERATIONS.
    ------------------------------------------------

 NO OUTPUT CONTROL FOR STRESS PERIOD    4   TIME STEP   12
 
 SOLVING FOR HEAD 
                                                   Max.-Head-Change                         Max.-Flux-Residual
  Residual-Control   Outer-Iter.   Inner-Iter.     Column Row Layer    Maximum-Head-Change  Column Row Layer    Maximum-Flux-Residual          L2-NORM 
          0                 1           2             2    2     1       0.7438639233E-02       2    2    1         0.3882289153E+00      0.8963546562E+00
          0                 2           2             2    2     1      -0.7235787787E-03       2    2    1        -0.3882302561E-01      0.8874011323E-01
          0                 3           1             2    2     1       0.4927301270E-04       2    2    1         0.2717611707E-02      0.6129635497E-02

    ------------------------------------------------
       NWT REQUIRED            3 OUTER ITERATIONS 
       AND A TOTAL OF          5 INNER ITERATIONS.
    ------------------------------------------------

 NO OUTPUT CONTROL FOR STRESS PERIOD    4   TIME STEP   13
 
 SOLVING FOR HEAD 
                                                   Max.-Head-Change                         Max.-Flux-Residual
  Residual-Control   Outer-Iter.   Inner-Iter.     Column Row Layer    Maximum-Head-Change  Column Row Layer    Maximum-Flux-Residual          L2-NORM 
          0                 1           2             2    2     1       0.7395066983E-02       2    2    1         0.3859382734E+00      0.8728756013E+00
          0                 2           2             2    2     1      -0.7193403529E-03       2    2    1        -0.3859395916E-01      0.8649866352E-01
          0                 3           1             2    2     1       0.4898439178E-04       2    2    1         0.2701577072E-02      0.5982734161E-02

    ------------------------------------------------
       NWT REQUIRED            3 OUTER ITERATIONS 
       AND A TOTAL OF          5 INNER ITERATIONS.
    ------------------------------------------------

 NO OUTPUT CONTROL FOR STRESS PERIOD    4   TIME STEP   14
 
 SOLVING FOR HEAD 
                                                   Max.-Head-Change                         Max.-Flux-Residual
  Residual-Control   Outer-Iter.   Inner-Iter.     Column Row Layer    Maximum-Head-Change  Column Row Layer    Maximum-Flux-Residual          L2-NORM 
          0                 1           2             2    2     1       0.7352092854E-02       2    2    1         0.3836791065E+00      0.8518994278E+00
          0                 2           2             2    2     1      -0.7151601084E-03       2    2    1        -0.3836804027E-01      0.8449567653E-01
          0                 3           1             2    2     1       0.4869973324E-04       2    2    1         0.2685762758E-02      0.5851036864E-02

    ------------------------------------------------
       NWT REQUIRED            3 OUTER ITERATIONS 
       AND A TOTAL OF          5 INNER ITERATIONS.
    ------------------------------------------------

 NO OUTPUT CONTROL FOR STRESS PERIOD    4   TIME STEP   15
 
 SOLVING FOR HEAD 
                                                   Max.-Head-Change                         Max.-Flux-Residual
  Residual-Control   Outer-Iter.   Inner-Iter.     Column Row Layer    Maximum-Head-Change  Column Row Layer    Maximum-Flux-Residual          L2-NORM 
          0                 1           2             2    2     1       0.7309707357E-02       2    2    1         0.3814509516E+00      0.8331307620E+00
          0                 2           2             2    2     1      -0.7110371230E-03       2    2    1        -0.3814522262E-01      0.8270110331E-01
          0                 3           1             2    2     1       0.4841897341E-04       2    2    1         0.2670165546E-02      0.5732657778E-02

    ------------------------------------------------
       NWT REQUIRED            3 OUTER ITERATIONS 
       AND A TOTAL OF          5 INNER ITERATIONS.
    ------------------------------------------------

 NO OUTPUT CONTROL FOR STRESS PERIOD    4   TIME STEP   16
 
 SOLVING FOR HEAD 
                                                   Max.-Head-Change                         Max.-Flux-Residual
  Residual-Control   Outer-Iter.   Inner-Iter.     Column Row Layer    Maximum-Head-Change  Column Row Layer    Maximum-Flux-Residual          L2-NORM 
          0                 1           2             2    2     1       0.7267901158E-02       2    2    1         0.3792533165E+00      0.8162931960E+00
          0                 2           2             2    2     1      -0.7069704878E-03       2    2    1        -0.3792545702E-01      0.8109098760E-01
          0                 3           1             2    2     1       0.4814205101E-04       2    2    1         0.2654781948E-02      0.5626889720E-02

    ------------------------------------------------
       NWT REQUIRED            3 OUTER ITERATIONS 
       AND A TOTAL OF          5 INNER ITERATIONS.
    ------------------------------------------------

 NO OUTPUT CONTROL FOR STRESS PERIOD    4   TIME STEP   17
 
 SOLVING FOR HEAD 
                                                   Max.-Head-Change                         Max.-Flux-Residual
  Residual-Control   Outer-Iter.   Inner-Iter.     Column Row Layer    Maximum-Head-Change  Column Row Layer    Maximum-Flux-Residual          L2-NORM 
          0                 1           2             2    2     1       0.7226578131E-02       2    2    1         0.3770811549E+00      0.8011508426E+00
          0                 2           2             2    2     1      -0.7029508528E-03       2    2    1        -0.3770823880E-01      0.7964083820E-01
          0                 3           1             2    2     1       0.4786832891E-04       2    2    1         0.2639576682E-02      0.5531029795E-02

    ------------------------------------------------
       NWT REQUIRED            3 OUTER ITERATIONS 
       AND A TOTAL OF          5 INNER ITERATIONS.
    ------------------------------------------------

 NO OUTPUT CONTROL FOR STRESS PERIOD    4   TIME STEP   18
 
 SOLVING FOR HEAD 
                                                   Max.-Head-Change                         Max.-Flux-Residual
  Residual-Control   Outer-Iter.   Inner-Iter.     Column Row Layer    Maximum-Head-Change  Column Row Layer    Maximum-Flux-Residual          L2-NORM 
          0                 1           2             2    2     1       0.7185817218E-02       2    2    1         0.3749386074E+00      0.7875070338E+00
          0                 2           2             2    2     1      -0.6989858975E-03       2    2    1        -0.3749398205E-01      0.7833269047E-01
          0                 3           1             2    2     1       0.4759833038E-04       2    2    1         0.2624578734E-02      0.5445139414E-02

    ------------------------------------------------
       NWT REQUIRED            3 OUTER ITERATIONS 
       AND A TOTAL OF          5 INNER ITERATIONS.
    ------------------------------------------------

 NO OUTPUT CONTROL FOR STRESS PERIOD    4   TIME STEP   19
 
 SOLVING FOR HEAD 
                                                   Max.-Head-Change                         Max.-Flux-Residual
  Residual-Control   Outer-Iter.   Inner-Iter.     Column Row Layer    Maximum-Head-Change  Column Row Layer    Maximum-Flux-Residual          L2-NORM 
          0                 1           2             2    2     1       0.7145522238E-02       2    2    1         0.3728206420E+00      0.7751638086E+00
          0                 2           2             2    2     1      -0.6950662644E-03       2    2    1        -0.3728218352E-01      0.7714819499E-01
          0                 3           1             2    2     1       0.4733141808E-04       2    2    1         0.2609752834E-02      0.5367000219E-02

    ------------------------------------------------
       NWT REQUIRED            3 OUTER ITERATIONS 
       AND A TOTAL OF          5 INNER ITERATIONS.
    ------------------------------------------------

 NO OUTPUT CONTROL FOR STRESS PERIOD    4   TIME STEP   20
 
 SOLVING FOR HEAD 
                                                   Max.-Head-Change                         Max.-Flux-Residual
  Residual-Control   Outer-Iter.   Inner-Iter.     Column Row Layer    Maximum-Head-Change  Column Row Layer    Maximum-Flux-Residual          L2-NORM 
          0                 1           2             2    2     1       0.7105773241E-02       2    2    1         0.3707313974E+00      0.7639715127E+00
          0                 2           2             2    2     1      -0.6911997419E-03       2    2    1        -0.3707325713E-01      0.7607260370E-01
          0                 3           1             2    2     1       0.4706812237E-04       2    2    1         0.2595128006E-02      0.5295437653E-02

    ------------------------------------------------
       NWT REQUIRED            3 OUTER ITERATIONS 
       AND A TOTAL OF          5 INNER ITERATIONS.
    ------------------------------------------------

 NO OUTPUT CONTROL FOR STRESS PERIOD    4   TIME STEP   21
 
 SOLVING FOR HEAD 
                                                   Max.-Head-Change                         Max.-Flux-Residual
  Residual-Control   Outer-Iter.   Inner-Iter.     Column Row Layer    Maximum-Head-Change  Column Row Layer    Maximum-Flux-Residual          L2-NORM 
          0                 1           2             2    2     1       0.7066561166E-02       2    2    1         0.3686704614E+00      0.7538014623E+00
          0                 2           2             2    2     1      -0.6873854482E-03       2    2    1        -0.3686716167E-01      0.7509363301E-01
          0                 3           1             2    2     1       0.4680838364E-04       2    2    1         0.2580701338E-02      0.5230201085E-02

    ------------------------------------------------
       NWT REQUIRED            3 OUTER ITERATIONS 
       AND A TOTAL OF          5 INNER ITERATIONS.
    ------------------------------------------------

 NO OUTPUT CONTROL FOR STRESS PERIOD    4   TIME STEP   22
 
 SOLVING FOR HEAD 
                                                   Max.-Head-Change                         Max.-Flux-Residual
  Residual-Control   Outer-Iter.   Inner-Iter.     Column Row Layer    Maximum-Head-Change  Column Row Layer    Maximum-Flux-Residual          L2-NORM 
          0                 1           2             2    2     1       0.7027878312E-02       2    2    1         0.3666373642E+00      0.7445178695E+00
          0                 2           2             2    2     1      -0.6836226336E-03       2    2    1        -0.3666385012E-01      0.7419872622E-01
          0                 3           1             2    2     1       0.4655215026E-04       2    2    1         0.2566469548E-02      0.5171024936E-02

    ------------------------------------------------
       NWT REQUIRED            3 OUTER ITERATIONS 
       AND A TOTAL OF          5 INNER ITERATIONS.
    ------------------------------------------------

 NO OUTPUT CONTROL FOR STRESS PERIOD    4   TIME STEP   23
 
 SOLVING FOR HEAD 
                                                   Max.-Head-Change                         Max.-Flux-Residual
  Residual-Control   Outer-Iter.   Inner-Iter.     Column Row Layer    Maximum-Head-Change  Column Row Layer    Maximum-Flux-Residual          L2-NORM 
          0                 1           2             2    2     1       0.6989628658E-02       2    2    1         0.3646271426E+00      0.7360062400E+00
          0                 2           2             2    2     1      -0.6799019578E-03       2    2    1        -0.3646282615E-01      0.7337673489E-01
          0                 3           1             2    2     1       0.4629878632E-04       2    2    1         0.2552397876E-02      0.5116143678E-02

    ------------------------------------------------
       NWT REQUIRED            3 OUTER ITERATIONS 
       AND A TOTAL OF          5 INNER ITERATIONS.
    ------------------------------------------------

 NO OUTPUT CONTROL FOR STRESS PERIOD    4   TIME STEP   24
 
 SOLVING FOR HEAD 
                                                   Max.-Head-Change                         Max.-Flux-Residual
  Residual-Control   Outer-Iter.   Inner-Iter.     Column Row Layer    Maximum-Head-Change  Column Row Layer    Maximum-Flux-Residual          L2-NORM 
          0                 1           2             2    2     1       0.6951892023E-02       2    2    1         0.3626439456E+00      0.7281983133E+00
          0                 2           2             2    2     1      -0.6762311859E-03       2    2    1        -0.3626450471E-01      0.7262156190E-01
          0                 3           1             2    2     1       0.4604882077E-04       2    2    1         0.2538515384E-02      0.5065284841E-02

    ------------------------------------------------
       NWT REQUIRED            3 OUTER ITERATIONS 
       AND A TOTAL OF          5 INNER ITERATIONS.
    ------------------------------------------------

 NO OUTPUT CONTROL FOR STRESS PERIOD    4   TIME STEP   25
 
 SOLVING FOR HEAD 
                                                   Max.-Head-Change                         Max.-Flux-Residual
  Residual-Control   Outer-Iter.   Inner-Iter.     Column Row Layer    Maximum-Head-Change  Column Row Layer    Maximum-Flux-Residual          L2-NORM 
          0                 1           2             2    2     1       0.6914661474E-02       2    2    1         0.3606873480E+00      0.7209916053E+00
          0                 2           2             2    2     1      -0.6726096427E-03       2    2    1        -0.3606884324E-01      0.7192341227E-01
          0                 3           1             2    2     1       0.4580220674E-04       2    2    1         0.2524819075E-02      0.5018352378E-02

    ------------------------------------------------
       NWT REQUIRED            3 OUTER ITERATIONS 
       AND A TOTAL OF          5 INNER ITERATIONS.
    ------------------------------------------------

 NO OUTPUT CONTROL FOR STRESS PERIOD    4   TIME STEP   26
 
 SOLVING FOR HEAD 
                                                   Max.-Head-Change                         Max.-Flux-Residual
  Residual-Control   Outer-Iter.   Inner-Iter.     Column Row Layer    Maximum-Head-Change  Column Row Layer    Maximum-Flux-Residual          L2-NORM 
          0                 1           2             2    2     1       0.6877928277E-02       2    2    1         0.3587569905E+00      0.7143397047E+00
          0                 2           2             2    2     1      -0.6690364786E-03       2    2    1        -0.3587580578E-01      0.7127801134E-01
          0                 3           1             2    2     1       0.4555888816E-04       2    2    1         0.2511306479E-02      0.4975163131E-02

    ------------------------------------------------
       NWT REQUIRED            3 OUTER ITERATIONS 
       AND A TOTAL OF          5 INNER ITERATIONS.
    ------------------------------------------------

 NO OUTPUT CONTROL FOR STRESS PERIOD    4   TIME STEP   27
 
 SOLVING FOR HEAD 
                                                   Max.-Head-Change                         Max.-Flux-Residual
  Residual-Control   Outer-Iter.   Inner-Iter.     Column Row Layer    Maximum-Head-Change  Column Row Layer    Maximum-Flux-Residual          L2-NORM 
          0                 1           2             2    2     1       0.6841597725E-02       2    2    1         0.3568478554E+00      0.7081477075E+00
          0                 2           2             2    2     1      -0.6655024816E-03       2    2    1        -0.3568489062E-01      0.7067626262E-01
          0                 3           1             2    2     1       0.4531823594E-04       2    2    1         0.2497942415E-02      0.4934768679E-02

    ------------------------------------------------
       NWT REQUIRED            3 OUTER ITERATIONS 
       AND A TOTAL OF          5 INNER ITERATIONS.
    ------------------------------------------------

 NO OUTPUT CONTROL FOR STRESS PERIOD    4   TIME STEP   28
 
 SOLVING FOR HEAD 
                                                   Max.-Head-Change                         Max.-Flux-Residual
  Residual-Control   Outer-Iter.   Inner-Iter.     Column Row Layer    Maximum-Head-Change  Column Row Layer    Maximum-Flux-Residual          L2-NORM 
          0                 1           2             2    2     1       0.6805750517E-02       2    2    1         0.3549641614E+00      0.7023917774E+00
          0                 2           2             2    2     1      -0.6620155020E-03       2    2    1        -0.3549651963E-01      0.7011587605E-01
          0                 3           1             2    2     1       0.4508078638E-04       2    2    1         0.2484756477E-02      0.4897059874E-02

    ------------------------------------------------
       NWT REQUIRED            3 OUTER ITERATIONS 
       AND A TOTAL OF          5 INNER ITERATIONS.
    ------------------------------------------------

 NO OUTPUT CONTROL FOR STRESS PERIOD    4   TIME STEP   29
 
 SOLVING FOR HEAD 
                                                   Max.-Head-Change                         Max.-Flux-Residual
  Residual-Control   Outer-Iter.   Inner-Iter.     Column Row Layer    Maximum-Head-Change  Column Row Layer    Maximum-Flux-Residual          L2-NORM 
          0                 1           2             2    2     1       0.5350702689E-02       2    2    1         0.2788864438E+00      0.6872009672E+00
          0                 2           2             2    2     1      -0.5204783368E-03       2    2    1        -0.2788870231E-01      0.6809488962E-01
          0                 3           1             2    2     1       0.3544263660E-04       2    2    1         0.1952209451E-02      0.4709458908E-02

    ------------------------------------------------
       NWT REQUIRED            3 OUTER ITERATIONS 
       AND A TOTAL OF          5 INNER ITERATIONS.
    ------------------------------------------------

 NO OUTPUT CONTROL FOR STRESS PERIOD    4   TIME STEP   30



 STREAM LISTING     PERIOD      4   STEP       30

 LAYER ROW COL. STREAM  RCH.  FLOW INTO     FLOW TO   FLOW OUT OF   OVRLND.     DIRECT     STREAM       STREAM     STREAM     STREAM   STREAMBED  STREAMBED
                SEG.NO.  NO.  STRM. RCH.    AQUIFER    STRM. RCH.    RUNOFF     PRECIP       ET          HEAD       DEPTH      WIDTH   CONDCTNC.   GRADIENT

   1    1    1     1     1    6.2247E+01  3.7977E-01   6.1867E+01  0.000E+00  0.000E+00  0.000E+00  1.09460E+03  1.553E+00  1.854E+01  8.342E-02  1.518E+00
   1    2    2     1     2    6.1867E+01  5.8816E-01   6.1279E+01  0.000E+00  0.000E+00  0.000E+00  1.08961E+03  1.547E+00  1.848E+01  1.294E-01  1.516E+00
   1    3    3     1     3    6.1279E+01  5.0162E-01   6.0777E+01  0.000E+00  0.000E+00  0.000E+00  1.08396E+03  1.540E+00  1.841E+01  1.105E-01  1.513E+00
   1    3    4     1     4    6.0777E+01  4.6193E-01   6.0316E+01  0.000E+00  0.000E+00  0.000E+00  1.07894E+03  1.534E+00  1.836E+01  1.019E-01  1.511E+00
   1    4    5     2     1    5.8316E+01  3.9026E-01   5.7925E+01  0.000E+00  0.000E+00  0.000E+00  1.07394E+03  2.003E+00  1.200E+01  7.800E-02  1.668E+00
   1    5    6     2     2    5.7925E+01  2.9977E-01   5.7626E+01  0.000E+00  0.000E+00  0.000E+00  1.06851E+03  1.996E+00  1.200E+01  6.000E-02  1.665E+00
   1    6    6     2     3    5.7626E+01  2.9940E-01   5.7326E+01  0.000E+00  0.000E+00  0.000E+00  1.06378E+03  1.990E+00  1.200E+01  6.000E-02  1.663E+00
   1    7    6     2     4    5.7326E+01  2.9902E-01   5.7027E+01  0.000E+00  0.000E+00  0.000E+00  1.05906E+03  1.984E+00  1.200E+01  6.000E-02  1.661E+00
   1    8    6     2     5    5.7027E+01  2.9865E-01   5.6728E+01  0.000E+00  0.000E+00  0.000E+00  1.05434E+03  1.977E+00  1.200E+01  6.000E-02  1.659E+00
   1    3    5     3     1    2.0000E+00  2.8252E-01   1.7175E+00  0.000E+00  0.000E+00  0.000E+00  1.07555E+03  1.909E+00  9.636E+00  7.227E-02  1.955E+00
   1    3    6     3     2    1.7175E+00  2.4905E-01   1.4684E+00  0.000E+00  0.000E+00  0.000E+00  1.07264E+03  1.727E+00  8.909E+00  6.682E-02  1.864E+00
   1    3    7     3     3    1.4684E+00  1.9718E-01   1.2712E+00  0.000E+00  0.000E+00  0.000E+00  1.06987E+03  1.555E+00  8.218E+00  5.547E-02  1.777E+00
   1    4    8     3     4    1.2712E+00  2.2567E-01   1.0456E+00  0.000E+00  0.000E+00  0.000E+00  1.06682E+03  1.364E+00  7.455E+00  6.709E-02  1.682E+00
   1    5    8     3     5    1.0456E+00  1.5790E-01   8.8768E-01  0.000E+00  0.000E+00  0.000E+00  1.06362E+03  1.164E+00  6.655E+00  4.991E-02  1.582E+00
   1    6    8     3     6    8.8768E-01  5.5980E-02   8.3170E-01  0.000E+00  0.000E+00  0.000E+00  1.06158E+03  1.036E+00  6.145E+00  1.844E-02  1.518E+00
   1    5   10     4     1    1.0000E+01  9.0919E-02   9.9091E+00  0.000E+00  0.000E+00  0.000E+00  1.07836E+03  6.368E-01  1.000E+01  2.500E-02  1.212E+00
   1    5    9     4     2    9.9091E+00  1.8158E-01   9.7275E+00  0.000E+00  0.000E+00  0.000E+00  1.07154E+03  6.315E-01  1.000E+01  5.000E-02  1.211E+00
   1    6    8     4     3    9.7275E+00  1.2689E-01   9.6006E+00  0.000E+00  0.000E+00  0.000E+00  1.06381E+03  6.256E-01  1.000E+01  3.500E-02  1.209E+00
   1    6    8     5     1    1.0432E+01  2.2686E-01   1.0205E+01  0.000E+00  0.000E+00  0.000E+00  1.05868E+03  6.790E-01  1.542E+01  6.166E-02  1.226E+00
   1    7    7     5     2    1.0205E+01  2.7894E-01   9.9265E+00  0.000E+00  0.000E+00  0.000E+00  1.05417E+03  6.732E-01  1.519E+01  7.594E-02  1.224E+00
   1    8    7     5     3    9.9265E+00  1.9221E-01   9.7343E+00  0.000E+00  0.000E+00  0.000E+00  1.04992E+03  6.676E-01  1.497E+01  5.241E-02  1.223E+00
   1    8    6     5     4    9.7343E+00  1.3577E-01   9.5985E+00  0.000E+00  0.000E+00  0.000E+00  1.04691E+03  6.637E-01  1.482E+01  3.706E-02  1.221E+00
   1    9    6     6     1    6.6327E+01  3.1138E-01   6.6016E+01  0.000E+00  0.000E+00  0.000E+00  1.04492E+03  2.190E+00  1.200E+01  6.000E-02  1.730E+00
   1   10    7     6     2    6.6016E+01  3.1101E-01   6.5705E+01  0.000E+00  0.000E+00  0.000E+00  1.04037E+03  2.183E+00  1.200E+01  6.000E-02  1.728E+00
   1   11    7     6     3    6.5705E+01  3.1064E-01   6.5394E+01  0.000E+00  0.000E+00  0.000E+00  1.03581E+03  2.177E+00  1.200E+01  6.000E-02  1.726E+00
   1   12    7     6     4    6.5394E+01  3.1026E-01   6.5084E+01  0.000E+00  0.000E+00  0.000E+00  1.03126E+03  2.171E+00  1.200E+01  6.000E-02  1.724E+00
   1   13    7     6     5    6.5084E+01  2.1634E-02   6.5062E+01  0.000E+00  0.000E+00  0.000E+00  1.02808E+03  2.168E+00  1.200E+01  2.400E-02  3.005E-01
   1   14    9     7     1    1.5000E+02  1.3316E+00   1.4867E+02  0.000E+00  0.000E+00  0.000E+00  1.03987E+03  2.288E+00  5.529E+01  5.593E-01  7.936E-01
   1   13    8     7     2    1.4867E+02  1.8148E+00   1.4685E+02  0.000E+00  0.000E+00  0.000E+00  1.03478E+03  2.279E+00  5.526E+01  6.148E-01  9.840E-01
   1   13    7     7     3    1.4685E+02  1.4044E+00   1.4545E+02  0.000E+00  0.000E+00  0.000E+00  1.02969E+03  2.271E+00  5.522E+01  5.585E-01  8.382E-01
   1   13    6     8     1    2.1051E+02  1.0054E+00   2.0951E+02  0.000E+00  0.000E+00  0.000E+00  1.02507E+03  3.196E+00  4.634E+01  4.722E-01  7.097E-01
   1   13    5     8     2    2.0951E+02  1.9100E-01   2.0931E+02  0.000E+00  0.000E+00  0.000E+00  1.01882E+03  3.192E+00  4.629E+01  4.717E-01  1.350E-01
   1   13    4     8     3    2.0931E+02 -2.6809E+00   2.1200E+02  0.000E+00  0.000E+00  0.000E+00  1.01257E+03  3.199E+00  4.639E+01  4.727E+00 -1.890E-01
   1   13    3     8     4    2.1200E+02 -3.8539E+00   2.1585E+02  0.000E+00  0.000E+00  0.000E+00  1.00634E+03  3.218E+00  4.666E+01  4.755E+00 -2.702E-01
   1   13    2     8     5    2.1585E+02 -2.7437E+00   2.1859E+02  0.000E+00  0.000E+00  0.000E+00  1.00011E+03  3.236E+00  4.693E+01  4.782E+00 -1.912E-01
   1   13    1     8     6    2.1859E+02 -2.0240E+00   2.2062E+02  0.000E+00  0.000E+00  0.000E+00  9.95125E+02  3.250E+00  4.712E+01  2.881E+00 -2.342E-01





UNSATURATED ZONE PACKAGE VOLUMETRIC BUDGET FOR  TIME STEP    30 STRESS PERIOD    4
  ------------------------------------------------------------------------------



     CUMULATIVE VOLUMES      L**3       RATES FOR THIS TIME STEP      L**3/T
     ------------------                 ------------------------

           IN:                                      IN:
           ---                                      ---
        INFILTRATION =     6759998.6182          INFILTRATION =           0.8475

          OUT:                                     OUT:
          ----                                     ----
              UZF ET =     5917459.1037                UZF ET =           0.7500
        UZF RECHARGE =       73224.0000          UZF RECHARGE =       0.0000E+00

            IN - OUT =      769315.5145              IN - OUT =       9.7500E-02

          STORAGE:                                 STORAGE:
          --------                                 --------
      STORAGE CHANGE =      769315.5804        STORAGE CHANGE =       9.7500E-02

 PERCENT DISCREPANCY IS DIFFERENCE BETWEEN IN-OUT MINUS CHANGE IN STORAGE
 DIVIDED BY THE AVERAGE OF IN AND OUT TIMES 100

 PERCENT DISCREPANCY =           0.00     PERCENT DISCREPANCY =           0.00






1
  VOLUMETRIC BUDGET FOR AGRICULTURAL FIELDS AT  END OF TIME STEP   30, STRESS PERIOD   4
  ------------------------------------------------------------------------------

     CUMULATIVE VOLUMES      L**3       RATES FOR THIS TIME STEP      L**3/T
     ------------------                 ------------------------

           IN:                                      IN:
           ---                                      ---
               AG WELLS  =           0.0000                 AG WELLS  =           0.0000
      DIVERSION SEGMENTS =           0.0000        DIVERSION SEGMENTS =           0.0000
       IRRIGATION PONDS  =           0.0000         IRRIGATION PONDS  =           0.0000
           GW IRRIGATION =           0.0000             GW IRRIGATION =           0.0000
           SW IRRIGATION =           0.0000             SW IRRIGATION =           0.0000
        SYSTEM LOSSES GW =           0.0000          SYSTEM LOSSES GW =           0.0000
        SYSTEM LOSSES SW =           0.0000          SYSTEM LOSSES SW =           0.0000

                TOTAL IN =           0.0000                  TOTAL IN =           0.0000

          OUT:                                     OUT:
          ----                                     ----
               AG WELLS  =           0.0000                 AG WELLS  =           0.0000
      DIVERSION SEGMENTS =           0.0000        DIVERSION SEGMENTS =           0.0000
       IRRIGATION PONDS  =           0.0000         IRRIGATION PONDS  =           0.0000
           GW IRRIGATION =           0.0000             GW IRRIGATION =           0.0000
           SW IRRIGATION =           0.0000             SW IRRIGATION =           0.0000
        SYSTEM LOSSES GW =           0.0000          SYSTEM LOSSES GW =           0.0000
        SYSTEM LOSSES SW =           0.0000          SYSTEM LOSSES SW =           0.0000

               TOTAL OUT =           0.0000                 TOTAL OUT =           0.0000

                IN - OUT =           0.0000                  IN - OUT =           0.0000

     PERCENT DISCREPANCY =           0.00         PERCENT DISCREPANCY =           0.00



1
  VOLUMETRIC BUDGET FOR ENTIRE MODEL AT END OF TIME STEP   30, STRESS PERIOD   4
  ------------------------------------------------------------------------------

     CUMULATIVE VOLUMES      L**3       RATES FOR THIS TIME STEP      L**3/T
     ------------------                 ------------------------

           IN:                                      IN:
           ---                                      ---
             STORAGE     =     4269829.0000               STORAGE     =           1.1052
       CONSTANT HEAD     =           0.0000         CONSTANT HEAD     =           0.0000
     HEAD DEP BOUNDS     =     2276621.5000       HEAD DEP BOUNDS     =           0.2855
      STREAM LEAKAGE     =    98974160.0000        STREAM LEAKAGE     =          12.9321
        UZF RECHARGE     =       73223.9531          UZF RECHARGE     =           0.0000
               GW ET     =           0.0000                 GW ET     =           0.0000
     SURFACE LEAKAGE     =           0.0000       SURFACE LEAKAGE     =           0.0000
           AG WELLS      =           0.0000             AG WELLS      =           0.0000

                TOTAL IN =   105593832.0000                  TOTAL IN =          14.3228

          OUT:                                     OUT:
          ----                                     ----
             STORAGE     =    22369452.0000               STORAGE     =           2.7188
       CONSTANT HEAD     =           0.0000         CONSTANT HEAD     =           0.0000
     HEAD DEP BOUNDS     =     2327708.2500       HEAD DEP BOUNDS     =           0.2974
      STREAM LEAKAGE     =    80891952.0000        STREAM LEAKAGE     =          11.3025
        UZF RECHARGE     =           0.0000          UZF RECHARGE     =           0.0000
               GW ET     =        9869.1953                 GW ET     =       4.4240E-03
     SURFACE LEAKAGE     =           0.0000       SURFACE LEAKAGE     =           0.0000
           AG WELLS      =           0.0000             AG WELLS      =           0.0000

               TOTAL OUT =   105598984.0000                 TOTAL OUT =          14.3232

                IN - OUT =       -5152.0000                  IN - OUT =      -4.5967E-04

     PERCENT DISCREPANCY =          -0.00         PERCENT DISCREPANCY =          -0.00






         TIME SUMMARY AT END OF TIME STEP   30 IN STRESS PERIOD    4
                    SECONDS     MINUTES      HOURS       DAYS        YEARS
                    -----------------------------------------------------------
   TIME STEP LENGTH  87667.      1461.1      24.352      1.0147     2.77799E-03
 STRESS PERIOD TIME 2.63000E+06  43833.      730.56      30.440     8.33397E-02
         TOTAL TIME 7.97639E+06 1.32940E+05  2215.7      92.319     0.25276    
1
1
                            STRESS PERIOD NO.    5, LENGTH =   2630000.    
                            -----------------------------------------------

                              NUMBER OF TIME STEPS =    30

                               MULTIPLIER FOR DELT =     1.000

                            INITIAL TIME STEP SIZE =   87666.66    

 REUSING NON-PARAMETER GHB CELLS FROM LAST STRESS PERIOD

      2 GHB CELLS

 REUSING STREAM SEGMENT DATA FROM LAST STRESS PERIOD



            AREAL INFILTRATION RATE
 READING ON UNIT   19 WITH FORMAT: (FREE)              

            1           2           3           4           5           6           7           8           9          10
 ........................................................................................................................
   1   1.0000E-10  2.0000E-10   0.000       0.000       0.000       0.000       0.000       0.000       0.000       0.000    
   2   2.0000E-10  1.0000E-10  2.0000E-10   0.000       0.000      8.0000E-10  8.0000E-10  5.0000E-10   0.000       0.000    
   3    0.000      5.0000E-10  1.0000E-10  1.0000E-10  8.0000E-10  8.0000E-10  5.0000E-10  5.0000E-10   0.000       0.000    
   4   8.0000E-10  5.0000E-10  1.0000E-10  1.0000E-10  1.0000E-10  1.0000E-10  1.0000E-10  1.0000E-10  2.0000E-10   0.000    
   5   8.0000E-10  5.0000E-10  1.0000E-10  1.0000E-10  1.0000E-10  1.0000E-10  1.0000E-10  1.0000E-10  1.0000E-10  1.0000E-10
   6   8.0000E-10  5.0000E-10  5.0000E-10  2.0000E-10  2.0000E-10  1.0000E-10  1.0000E-10  1.0000E-10  1.0000E-10  5.0000E-10
   7   8.0000E-10  5.0000E-10  5.0000E-10  2.0000E-10  2.0000E-10  1.0000E-10  1.0000E-10  2.0000E-10  2.0000E-10   0.000    
   8    0.000      5.0000E-10  5.0000E-10  2.0000E-10  2.0000E-10  1.0000E-10  1.0000E-10  2.0000E-10  5.0000E-10   0.000    
   9    0.000      5.0000E-10  5.0000E-10  2.0000E-10  2.0000E-10  1.0000E-10  1.0000E-10  2.0000E-10  5.0000E-10   0.000    
  10    0.000      5.0000E-10  5.0000E-10  2.0000E-10  2.0000E-10  1.0000E-10  1.0000E-10  2.0000E-10  5.0000E-10  8.0000E-10
  11    0.000      1.0000E-10  1.0000E-10  1.0000E-10  1.0000E-10  1.0000E-10  1.0000E-10  2.0000E-10  5.0000E-10   0.000    
  12   1.0000E-10  1.0000E-10  1.0000E-10  1.0000E-10  1.0000E-10  1.0000E-10  1.0000E-10  1.0000E-10  2.0000E-10   0.000    
  13   1.0000E-10  1.0000E-10  2.0000E-10  2.0000E-10  2.0000E-10  2.0000E-10  2.0000E-10  1.0000E-10  1.0000E-10   0.000    
  14    0.000      2.0000E-10  5.0000E-10  5.0000E-10  5.0000E-10  5.0000E-10  5.0000E-10  2.0000E-10  1.0000E-10   0.000    
  15    0.000       0.000      8.0000E-10  8.0000E-10  8.0000E-10  8.0000E-10   0.000       0.000       0.000       0.000    

                  ET RATE =  2.500000E-08

 USING ET EXTINCTION DEPTH FROM PREVIOUS STRESS PERIOD. CURRENT PERIOD IS:       5

 USING EXTINCTION WATER CONTENT FROM PREVIOUS STRESS PERIOD. CURRENT PERIOD IS:       5

 USING AIR ENTRY PRESSURE FROM PREVIOUS STRESS PERIOD. CURRENT PERIOD IS:       5

 USING ROOT PRESSURE HEAD FROM PREVIOUS STRESS PERIOD. CURRENT PERIOD IS:       5

 USING ROOT ACTIVITY FROM PREVIOUS STRESS PERIOD. CURRENT PERIOD IS:       5

 PROCESSING AG STRESS PERIOD DATA

 READING AG STRESS PERIOD DATA

 READING IRRIGATION WELL

 NO IRRPOND OR REUSING IRRPOND DATA FROM LAST STRESS PERIOD

 END PROCESSING AG STRESS PERIOD DATA OPTIONS
 
 SOLVING FOR HEAD 
                                                   Max.-Head-Change                         Max.-Flux-Residual
  Residual-Control   Outer-Iter.   Inner-Iter.     Column Row Layer    Maximum-Head-Change  Column Row Layer    Maximum-Flux-Residual          L2-NORM 
          0                 1           2             4   13     1      -0.1883718453E-01       4   13    1        -0.1104090507E+01      0.2354825681E+01
          0                 2           2             4   13     1       0.1817341886E-02       4   13    1         0.1095192980E+00      0.2321047628E+00
          0                 3           2             4   13     1      -0.1228738067E-03       4   13    1        -0.7613531056E-02      0.1594850681E-01
          0                 4           1             4   13     1       0.5312840116E-05       4   13    1         0.3387370325E-03      0.6476881913E-03

    ------------------------------------------------
       NWT REQUIRED            4 OUTER ITERATIONS 
       AND A TOTAL OF          7 INNER ITERATIONS.
    ------------------------------------------------

 OUTPUT CONTROL FOR STRESS PERIOD    5   TIME STEP    1
    PRINT BUDGET
    SAVE BUDGET
 UBDSV1 SAVING "         STORAGE" ON UNIT 102 AT TIME STEP 1, STRESS PERIOD 5
 UBDSV2 SAVING "   CONSTANT HEAD" ON UNIT 102 AT TIME STEP 1, STRESS PERIOD 5
 UBDSV1 SAVING "FLOW RIGHT FACE " ON UNIT 102 AT TIME STEP 1, STRESS PERIOD 5
 UBDSV1 SAVING "FLOW FRONT FACE " ON UNIT 102 AT TIME STEP 1, STRESS PERIOD 5

  HEAD DEP BOUNDS   PERIOD    5   STEP     1
 BOUNDARY      1   LAYER   1   ROW    13   COL     1   RATE   -0.297160    
 BOUNDARY      2   LAYER   1   ROW    14   COL     9   RATE    0.285471    



 STREAM LISTING     PERIOD      5   STEP        1

 LAYER ROW COL. STREAM  RCH.  FLOW INTO     FLOW TO   FLOW OUT OF   OVRLND.     DIRECT     STREAM       STREAM     STREAM     STREAM   STREAMBED  STREAMBED
                SEG.NO.  NO.  STRM. RCH.    AQUIFER    STRM. RCH.    RUNOFF     PRECIP       ET          HEAD       DEPTH      WIDTH   CONDCTNC.   GRADIENT

   1    1    1     1     1    2.8000E+01  2.5860E-01   2.7741E+01  0.000E+00  0.000E+00  0.000E+00  1.09427E+03  1.221E+00  1.361E+01  6.126E-02  1.407E+00
   1    2    2     1     2    2.7741E+01  4.0002E-01   2.7341E+01  0.000E+00  0.000E+00  0.000E+00  1.08928E+03  1.217E+00  1.355E+01  9.487E-02  1.406E+00
   1    3    3     1     3    2.7341E+01  3.4070E-01   2.7001E+01  0.000E+00  0.000E+00  0.000E+00  1.08363E+03  1.212E+00  1.348E+01  8.090E-02  1.404E+00
   1    3    4     1     4    2.7001E+01  3.1335E-01   2.6687E+01  0.000E+00  0.000E+00  0.000E+00  1.07861E+03  1.207E+00  1.342E+01  7.448E-02  1.402E+00
   1    4    5     2     1    2.4687E+01  3.2711E-01   2.4360E+01  0.000E+00  0.000E+00  0.000E+00  1.07313E+03  1.194E+00  1.200E+01  7.800E-02  1.398E+00
   1    5    6     2     2    2.4360E+01  2.5111E-01   2.4109E+01  0.000E+00  0.000E+00  0.000E+00  1.06769E+03  1.185E+00  1.200E+01  6.000E-02  1.395E+00
   1    6    6     2     3    2.4109E+01  2.5067E-01   2.3858E+01  0.000E+00  0.000E+00  0.000E+00  1.06297E+03  1.178E+00  1.200E+01  6.000E-02  1.393E+00
   1    7    6     2     4    2.3858E+01  2.5023E-01   2.3608E+01  0.000E+00  0.000E+00  0.000E+00  1.05825E+03  1.170E+00  1.200E+01  6.000E-02  1.390E+00
   1    8    6     2     5    2.3608E+01  2.4978E-01   2.3358E+01  0.000E+00  0.000E+00  0.000E+00  1.05352E+03  1.163E+00  1.200E+01  6.000E-02  1.388E+00
   1    3    5     3     1    2.0000E+00  2.8252E-01   1.7175E+00  0.000E+00  0.000E+00  0.000E+00  1.07555E+03  1.909E+00  9.636E+00  7.227E-02  1.955E+00
   1    3    6     3     2    1.7175E+00  2.4905E-01   1.4684E+00  0.000E+00  0.000E+00  0.000E+00  1.07264E+03  1.727E+00  8.909E+00  6.682E-02  1.864E+00
   1    3    7     3     3    1.4684E+00  1.9718E-01   1.2712E+00  0.000E+00  0.000E+00  0.000E+00  1.06987E+03  1.555E+00  8.218E+00  5.547E-02  1.777E+00
   1    4    8     3     4    1.2712E+00  2.2567E-01   1.0456E+00  0.000E+00  0.000E+00  0.000E+00  1.06682E+03  1.364E+00  7.455E+00  6.709E-02  1.682E+00
   1    5    8     3     5    1.0456E+00  1.5790E-01   8.8768E-01  0.000E+00  0.000E+00  0.000E+00  1.06362E+03  1.164E+00  6.655E+00  4.991E-02  1.582E+00
   1    6    8     3     6    8.8768E-01  5.5980E-02   8.3170E-01  0.000E+00  0.000E+00  0.000E+00  1.06158E+03  1.036E+00  6.145E+00  1.844E-02  1.518E+00
   1    5   10     4     1    1.0000E+01  9.0919E-02   9.9091E+00  0.000E+00  0.000E+00  0.000E+00  1.07836E+03  6.368E-01  1.000E+01  2.500E-02  1.212E+00
   1    5    9     4     2    9.9091E+00  1.8158E-01   9.7275E+00  0.000E+00  0.000E+00  0.000E+00  1.07154E+03  6.315E-01  1.000E+01  5.000E-02  1.211E+00
   1    6    8     4     3    9.7275E+00  1.2689E-01   9.6006E+00  0.000E+00  0.000E+00  0.000E+00  1.06381E+03  6.256E-01  1.000E+01  3.500E-02  1.209E+00
   1    6    8     5     1    1.0432E+01  2.2686E-01   1.0205E+01  0.000E+00  0.000E+00  0.000E+00  1.05868E+03  6.790E-01  1.542E+01  6.166E-02  1.226E+00
   1    7    7     5     2    1.0205E+01  2.7894E-01   9.9265E+00  0.000E+00  0.000E+00  0.000E+00  1.05417E+03  6.732E-01  1.519E+01  7.594E-02  1.224E+00
   1    8    7     5     3    9.9265E+00  1.9221E-01   9.7343E+00  0.000E+00  0.000E+00  0.000E+00  1.04992E+03  6.676E-01  1.497E+01  5.241E-02  1.223E+00
   1    8    6     5     4    9.7343E+00  1.3577E-01   9.5985E+00  0.000E+00  0.000E+00  0.000E+00  1.04691E+03  6.637E-01  1.482E+01  3.706E-02  1.221E+00
   1    9    6     6     1    3.2957E+01  2.6627E-01   3.2691E+01  0.000E+00  0.000E+00  0.000E+00  1.04417E+03  1.438E+00  1.200E+01  6.000E-02  1.479E+00
   1   10    7     6     2    3.2691E+01  2.6584E-01   3.2425E+01  0.000E+00  0.000E+00  0.000E+00  1.03961E+03  1.431E+00  1.200E+01  6.000E-02  1.477E+00
   1   11    7     6     3    3.2425E+01  2.6542E-01   3.2159E+01  0.000E+00  0.000E+00  0.000E+00  1.03506E+03  1.424E+00  1.200E+01  6.000E-02  1.475E+00
   1   12    7     6     4    3.2159E+01  2.6500E-01   3.1894E+01  0.000E+00  0.000E+00  0.000E+00  1.03051E+03  1.417E+00  1.200E+01  6.000E-02  1.472E+00
   1   13    7     6     5    3.1894E+01  3.5108E-03   3.1891E+01  0.000E+00  0.000E+00  0.000E+00  1.02732E+03  1.413E+00  1.200E+01  2.400E-02  4.876E-02
   1   14    9     7     1    1.5000E+02  1.3316E+00   1.4867E+02  0.000E+00  0.000E+00  0.000E+00  1.03987E+03  2.288E+00  5.529E+01  5.593E-01  7.936E-01
   1   13    8     7     2    1.4867E+02  1.8147E+00   1.4685E+02  0.000E+00  0.000E+00  0.000E+00  1.03478E+03  2.279E+00  5.526E+01  6.148E-01  9.839E-01
   1   13    7     7     3    1.4685E+02  1.4041E+00   1.4545E+02  0.000E+00  0.000E+00  0.000E+00  1.02969E+03  2.271E+00  5.522E+01  5.585E-01  8.381E-01
   1   13    6     8     1    1.7734E+02  8.5541E-01   1.7649E+02  0.000E+00  0.000E+00  0.000E+00  1.02487E+03  2.997E+00  4.345E+01  4.428E-01  6.440E-01
   1   13    5     8     2    1.7649E+02  9.1594E-02   1.7639E+02  0.000E+00  0.000E+00  0.000E+00  1.01862E+03  2.994E+00  4.341E+01  4.423E-01  6.902E-02
   1   13    4     8     3    1.7639E+02 -3.3089E+00   1.7970E+02  0.000E+00  0.000E+00  0.000E+00  1.01238E+03  3.004E+00  4.356E+01  4.438E+00 -2.485E-01
   1   13    3     8     4    1.7970E+02 -4.4048E+00   1.8411E+02  0.000E+00  0.000E+00  0.000E+00  1.00615E+03  3.028E+00  4.391E+01  4.474E+00 -3.282E-01
   1   13    2     8     5    1.8411E+02 -3.3542E+00   1.8746E+02  0.000E+00  0.000E+00  0.000E+00  9.99927E+02  3.052E+00  4.426E+01  4.510E+00 -2.479E-01
   1   13    1     8     6    1.8746E+02 -2.3820E+00   1.8984E+02  0.000E+00  0.000E+00  0.000E+00  9.94945E+02  3.070E+00  4.451E+01  2.722E+00 -2.918E-01



 UBDSV3 SAVING "           GW ET" ON UNIT  61 AT TIME STEP 1, STRESS PERIOD 5
 UBDSV3 SAVING "    UZF RECHARGE" ON UNIT  61 AT TIME STEP 1, STRESS PERIOD 5
 UBDSV3 SAVING " SURFACE LEAKAGE" ON UNIT  61 AT TIME STEP 1, STRESS PERIOD 5
 UBDSV3 SAVING "       HORT+DUNN" ON UNIT  61 AT TIME STEP 1, STRESS PERIOD 5
 UBDSV3 SAVING "  STORAGE CHANGE" ON UNIT  61 AT TIME STEP 1, STRESS PERIOD 5


UNSATURATED ZONE PACKAGE VOLUMETRIC BUDGET FOR  TIME STEP     1 STRESS PERIOD    5
  ------------------------------------------------------------------------------



     CUMULATIVE VOLUMES      L**3       RATES FOR THIS TIME STEP      L**3/T
     ------------------                 ------------------------

           IN:                                      IN:
           ---                                      ---
        INFILTRATION =     7163046.1141          INFILTRATION =           4.5975

          OUT:                                     OUT:
          ----                                     ----
              UZF ET =     7001697.7947                UZF ET =          12.3677
        UZF RECHARGE =       73224.0000          UZF RECHARGE =       0.0000E+00

            IN - OUT =       88124.3194              IN - OUT =          -7.7702

          STORAGE:                                 STORAGE:
          --------                                 --------
      STORAGE CHANGE =       88124.3490        STORAGE CHANGE =          -7.7702

 PERCENT DISCREPANCY IS DIFFERENCE BETWEEN IN-OUT MINUS CHANGE IN STORAGE
 DIVIDED BY THE AVERAGE OF IN AND OUT TIMES 100

 PERCENT DISCREPANCY =           0.00     PERCENT DISCREPANCY =           0.00






 

            AG WELLS      PERIOD    5   STEP   1
 AG WELL      1   LAYER   1   ROW     6   COL     4   RATE   -0.625000    
 AG WELL      2   LAYER   1   ROW     6   COL     5   RATE   -0.625000    
 AG WELL      3   LAYER   1   ROW     7   COL     4   RATE   -0.625000    
 AG WELL      4   LAYER   1   ROW     7   COL     5   RATE   -0.625000    
 AG WELL      5   LAYER   1   ROW     8   COL     4   RATE   -0.625000    
 AG WELL      6   LAYER   1   ROW     8   COL     5   RATE   -0.625000    
 
 

        GW IRRIGATION     PERIOD    5   STEP   1
 AG WELL      1   ROW     6   COL     4   RATE    0.625000    
 AG WELL      2   ROW     6   COL     5   RATE    0.625000    
 AG WELL      3   ROW     7   COL     4   RATE    0.625000    
 AG WELL      4   ROW     7   COL     5   RATE    0.625000    
 AG WELL      5   ROW     8   COL     4   RATE    0.625000    
 AG WELL      6   ROW     8   COL     5   RATE    0.625000    
 
1
  VOLUMETRIC BUDGET FOR AGRICULTURAL FIELDS AT  END OF TIME STEP    1, STRESS PERIOD   5
  ------------------------------------------------------------------------------

     CUMULATIVE VOLUMES      L**3       RATES FOR THIS TIME STEP      L**3/T
     ------------------                 ------------------------

           IN:                                      IN:
           ---                                      ---
               AG WELLS  =      328750.0000                 AG WELLS  =           3.7500
      DIVERSION SEGMENTS =           0.0000        DIVERSION SEGMENTS =           0.0000
       IRRIGATION PONDS  =           0.0000         IRRIGATION PONDS  =           0.0000
           GW IRRIGATION =           0.0000             GW IRRIGATION =           0.0000
           SW IRRIGATION =           0.0000             SW IRRIGATION =           0.0000
        SYSTEM LOSSES GW =           0.0000          SYSTEM LOSSES GW =           0.0000
        SYSTEM LOSSES SW =           0.0000          SYSTEM LOSSES SW =           0.0000

                TOTAL IN =      328750.0000                  TOTAL IN =           3.7500

          OUT:                                     OUT:
          ----                                     ----
               AG WELLS  =           0.0000                 AG WELLS  =           0.0000
      DIVERSION SEGMENTS =           0.0000        DIVERSION SEGMENTS =           0.0000
       IRRIGATION PONDS  =           0.0000         IRRIGATION PONDS  =           0.0000
           GW IRRIGATION =      328750.0000             GW IRRIGATION =           3.7500
           SW IRRIGATION =           0.0000             SW IRRIGATION =           0.0000
        SYSTEM LOSSES GW =           0.0000          SYSTEM LOSSES GW =           0.0000
        SYSTEM LOSSES SW =           0.0000          SYSTEM LOSSES SW =           0.0000

               TOTAL OUT =      328750.0000                 TOTAL OUT =           3.7500

                IN - OUT =           0.0000                  IN - OUT =           0.0000

     PERCENT DISCREPANCY =           0.00         PERCENT DISCREPANCY =           0.00



1
  VOLUMETRIC BUDGET FOR ENTIRE MODEL AT END OF TIME STEP    1, STRESS PERIOD   5
  ------------------------------------------------------------------------------

     CUMULATIVE VOLUMES      L**3       RATES FOR THIS TIME STEP      L**3/T
     ------------------                 ------------------------

           IN:                                      IN:
           ---                                      ---
             STORAGE     =     4922254.5000               STORAGE     =           7.4421
       CONSTANT HEAD     =           0.0000         CONSTANT HEAD     =           0.0000
     HEAD DEP BOUNDS     =     2301647.7500       HEAD DEP BOUNDS     =           0.2855
      STREAM LEAKAGE     =    99991656.0000        STREAM LEAKAGE     =          11.6064
        UZF RECHARGE     =       73223.9531          UZF RECHARGE     =           0.0000
               GW ET     =           0.0000                 GW ET     =           0.0000
     SURFACE LEAKAGE     =           0.0000       SURFACE LEAKAGE     =           0.0000
           AG WELLS      =           0.0000             AG WELLS      =           0.0000

                TOTAL IN =   107288784.0000                  TOTAL IN =          19.3340

          OUT:                                     OUT:
          ----                                     ----
             STORAGE     =    22502026.0000               STORAGE     =           1.5122
       CONSTANT HEAD     =           0.0000         CONSTANT HEAD     =           0.0000
     HEAD DEP BOUNDS     =     2353759.2500       HEAD DEP BOUNDS     =           0.2972
      STREAM LEAKAGE     =    82071056.0000        STREAM LEAKAGE     =          13.4499
        UZF RECHARGE     =           0.0000          UZF RECHARGE     =           0.0000
               GW ET     =       38340.7812                 GW ET     =           0.3248
     SURFACE LEAKAGE     =           0.0000       SURFACE LEAKAGE     =           0.0000
           AG WELLS      =      328750.0000             AG WELLS      =           3.7500

               TOTAL OUT =   107293936.0000                 TOTAL OUT =          19.3340

                IN - OUT =       -5152.0000                  IN - OUT =      -1.5259E-05

     PERCENT DISCREPANCY =          -0.00         PERCENT DISCREPANCY =          -0.00






         TIME SUMMARY AT END OF TIME STEP    1 IN STRESS PERIOD    5
                    SECONDS     MINUTES      HOURS       DAYS        YEARS
                    -----------------------------------------------------------
   TIME STEP LENGTH  87667.      1461.1      24.352      1.0147     2.77799E-03
 STRESS PERIOD TIME  87667.      1461.1      24.352      1.0147     2.77799E-03
         TOTAL TIME 8.06406E+06 1.34401E+05  2240.0      93.334     0.25553    
1
 
 SOLVING FOR HEAD 
                                                   Max.-Head-Change                         Max.-Flux-Residual
  Residual-Control   Outer-Iter.   Inner-Iter.     Column Row Layer    Maximum-Head-Change  Column Row Layer    Maximum-Flux-Residual          L2-NORM 
          0                 1           2             4   13     1      -0.1670872815E-01       4   13    1        -0.9789543473E+00      0.1653984022E+01
          0                 2           2             4    7     1      -0.1147431286E-01       5    6    1        -0.6194586055E+00      0.1521974555E+01
          0                 3           2             4    7     1       0.7809868625E-03       5    6    1         0.4333913470E-01      0.1064435418E+00
          0                 4           1             4    7     1      -0.3107620781E-04       5    6    1        -0.1772324764E-02      0.4350809604E-02

    ------------------------------------------------
       NWT REQUIRED            4 OUTER ITERATIONS 
       AND A TOTAL OF          7 INNER ITERATIONS.
    ------------------------------------------------

 OUTPUT CONTROL FOR STRESS PERIOD    5   TIME STEP    2
    PRINT BUDGET
    SAVE BUDGET
 UBDSV1 SAVING "         STORAGE" ON UNIT 102 AT TIME STEP 2, STRESS PERIOD 5
 UBDSV2 SAVING "   CONSTANT HEAD" ON UNIT 102 AT TIME STEP 2, STRESS PERIOD 5
 UBDSV1 SAVING "FLOW RIGHT FACE " ON UNIT 102 AT TIME STEP 2, STRESS PERIOD 5
 UBDSV1 SAVING "FLOW FRONT FACE " ON UNIT 102 AT TIME STEP 2, STRESS PERIOD 5

  HEAD DEP BOUNDS   PERIOD    5   STEP     2
 BOUNDARY      1   LAYER   1   ROW    13   COL     1   RATE   -0.296895    
 BOUNDARY      2   LAYER   1   ROW    14   COL     9   RATE    0.285471    



 STREAM LISTING     PERIOD      5   STEP        2

 LAYER ROW COL. STREAM  RCH.  FLOW INTO     FLOW TO   FLOW OUT OF   OVRLND.     DIRECT     STREAM       STREAM     STREAM     STREAM   STREAMBED  STREAMBED
                SEG.NO.  NO.  STRM. RCH.    AQUIFER    STRM. RCH.    RUNOFF     PRECIP       ET          HEAD       DEPTH      WIDTH   CONDCTNC.   GRADIENT

   1    1    1     1     1    2.8000E+01  2.5860E-01   2.7741E+01  0.000E+00  0.000E+00  0.000E+00  1.09427E+03  1.221E+00  1.361E+01  6.126E-02  1.407E+00
   1    2    2     1     2    2.7741E+01  4.0002E-01   2.7341E+01  0.000E+00  0.000E+00  0.000E+00  1.08928E+03  1.217E+00  1.355E+01  9.487E-02  1.406E+00
   1    3    3     1     3    2.7341E+01  3.4070E-01   2.7001E+01  0.000E+00  0.000E+00  0.000E+00  1.08363E+03  1.212E+00  1.348E+01  8.090E-02  1.404E+00
   1    3    4     1     4    2.7001E+01  3.1335E-01   2.6687E+01  0.000E+00  0.000E+00  0.000E+00  1.07861E+03  1.207E+00  1.342E+01  7.448E-02  1.402E+00
   1    4    5     2     1    2.4687E+01  3.2711E-01   2.4360E+01  0.000E+00  0.000E+00  0.000E+00  1.07313E+03  1.194E+00  1.200E+01  7.800E-02  1.398E+00
   1    5    6     2     2    2.4360E+01  2.5111E-01   2.4109E+01  0.000E+00  0.000E+00  0.000E+00  1.06769E+03  1.185E+00  1.200E+01  6.000E-02  1.395E+00
   1    6    6     2     3    2.4109E+01  2.5067E-01   2.3858E+01  0.000E+00  0.000E+00  0.000E+00  1.06297E+03  1.178E+00  1.200E+01  6.000E-02  1.393E+00
   1    7    6     2     4    2.3858E+01  2.5023E-01   2.3608E+01  0.000E+00  0.000E+00  0.000E+00  1.05825E+03  1.170E+00  1.200E+01  6.000E-02  1.390E+00
   1    8    6     2     5    2.3608E+01  2.4978E-01   2.3358E+01  0.000E+00  0.000E+00  0.000E+00  1.05352E+03  1.163E+00  1.200E+01  6.000E-02  1.388E+00
   1    3    5     3     1    2.0000E+00  2.8252E-01   1.7175E+00  0.000E+00  0.000E+00  0.000E+00  1.07555E+03  1.909E+00  9.636E+00  7.227E-02  1.955E+00
   1    3    6     3     2    1.7175E+00  2.4905E-01   1.4684E+00  0.000E+00  0.000E+00  0.000E+00  1.07264E+03  1.727E+00  8.909E+00  6.682E-02  1.864E+00
   1    3    7     3     3    1.4684E+00  1.9718E-01   1.2712E+00  0.000E+00  0.000E+00  0.000E+00  1.06987E+03  1.555E+00  8.218E+00  5.547E-02  1.777E+00
   1    4    8     3     4    1.2712E+00  2.2567E-01   1.0456E+00  0.000E+00  0.000E+00  0.000E+00  1.06682E+03  1.364E+00  7.455E+00  6.709E-02  1.682E+00
   1    5    8     3     5    1.0456E+00  1.5790E-01   8.8768E-01  0.000E+00  0.000E+00  0.000E+00  1.06362E+03  1.164E+00  6.655E+00  4.991E-02  1.582E+00
   1    6    8     3     6    8.8768E-01  5.5980E-02   8.3170E-01  0.000E+00  0.000E+00  0.000E+00  1.06158E+03  1.036E+00  6.145E+00  1.844E-02  1.518E+00
   1    5   10     4     1    1.0000E+01  9.0919E-02   9.9091E+00  0.000E+00  0.000E+00  0.000E+00  1.07836E+03  6.368E-01  1.000E+01  2.500E-02  1.212E+00
   1    5    9     4     2    9.9091E+00  1.8158E-01   9.7275E+00  0.000E+00  0.000E+00  0.000E+00  1.07154E+03  6.315E-01  1.000E+01  5.000E-02  1.211E+00
   1    6    8     4     3    9.7275E+00  1.2689E-01   9.6006E+00  0.000E+00  0.000E+00  0.000E+00  1.06381E+03  6.256E-01  1.000E+01  3.500E-02  1.209E+00
   1    6    8     5     1    1.0432E+01  2.2686E-01   1.0205E+01  0.000E+00  0.000E+00  0.000E+00  1.05868E+03  6.790E-01  1.542E+01  6.166E-02  1.226E+00
   1    7    7     5     2    1.0205E+01  2.7894E-01   9.9265E+00  0.000E+00  0.000E+00  0.000E+00  1.05417E+03  6.732E-01  1.519E+01  7.594E-02  1.224E+00
   1    8    7     5     3    9.9265E+00  1.9221E-01   9.7343E+00  0.000E+00  0.000E+00  0.000E+00  1.04992E+03  6.676E-01  1.497E+01  5.241E-02  1.223E+00
   1    8    6     5     4    9.7343E+00  1.3577E-01   9.5985E+00  0.000E+00  0.000E+00  0.000E+00  1.04691E+03  6.637E-01  1.482E+01  3.706E-02  1.221E+00
   1    9    6     6     1    3.2957E+01  2.6627E-01   3.2691E+01  0.000E+00  0.000E+00  0.000E+00  1.04417E+03  1.438E+00  1.200E+01  6.000E-02  1.479E+00
   1   10    7     6     2    3.2691E+01  2.6584E-01   3.2425E+01  0.000E+00  0.000E+00  0.000E+00  1.03961E+03  1.431E+00  1.200E+01  6.000E-02  1.477E+00
   1   11    7     6     3    3.2425E+01  2.6542E-01   3.2159E+01  0.000E+00  0.000E+00  0.000E+00  1.03506E+03  1.424E+00  1.200E+01  6.000E-02  1.475E+00
   1   12    7     6     4    3.2159E+01  2.6500E-01   3.1894E+01  0.000E+00  0.000E+00  0.000E+00  1.03051E+03  1.417E+00  1.200E+01  6.000E-02  1.472E+00
   1   13    7     6     5    3.1894E+01  3.4993E-03   3.1891E+01  0.000E+00  0.000E+00  0.000E+00  1.02732E+03  1.413E+00  1.200E+01  2.400E-02  4.860E-02
   1   14    9     7     1    1.5000E+02  1.3316E+00   1.4867E+02  0.000E+00  0.000E+00  0.000E+00  1.03987E+03  2.288E+00  5.529E+01  5.593E-01  7.936E-01
   1   13    8     7     2    1.4867E+02  1.8145E+00   1.4685E+02  0.000E+00  0.000E+00  0.000E+00  1.03478E+03  2.279E+00  5.526E+01  6.148E-01  9.838E-01
   1   13    7     7     3    1.4685E+02  1.4038E+00   1.4545E+02  0.000E+00  0.000E+00  0.000E+00  1.02969E+03  2.271E+00  5.522E+01  5.585E-01  8.379E-01
   1   13    6     8     1    1.7734E+02  8.5616E-01   1.7648E+02  0.000E+00  0.000E+00  0.000E+00  1.02487E+03  2.997E+00  4.345E+01  4.428E-01  6.445E-01
   1   13    5     8     2    1.7648E+02  9.2005E-02   1.7639E+02  0.000E+00  0.000E+00  0.000E+00  1.01862E+03  2.994E+00  4.341E+01  4.423E-01  6.933E-02
   1   13    4     8     3    1.7639E+02 -3.2421E+00   1.7963E+02  0.000E+00  0.000E+00  0.000E+00  1.01238E+03  3.004E+00  4.355E+01  4.438E+00 -2.435E-01
   1   13    3     8     4    1.7963E+02 -4.3427E+00   1.8398E+02  0.000E+00  0.000E+00  0.000E+00  1.00615E+03  3.027E+00  4.390E+01  4.473E+00 -3.236E-01
   1   13    2     8     5    1.8398E+02 -3.2978E+00   1.8728E+02  0.000E+00  0.000E+00  0.000E+00  9.99926E+02  3.051E+00  4.424E+01  4.508E+00 -2.438E-01
   1   13    1     8     6    1.8728E+02 -2.3653E+00   1.8964E+02  0.000E+00  0.000E+00  0.000E+00  9.94944E+02  3.069E+00  4.449E+01  2.720E+00 -2.898E-01



 UBDSV3 SAVING "           GW ET" ON UNIT  61 AT TIME STEP 2, STRESS PERIOD 5
 UBDSV3 SAVING "    UZF RECHARGE" ON UNIT  61 AT TIME STEP 2, STRESS PERIOD 5
 UBDSV3 SAVING " SURFACE LEAKAGE" ON UNIT  61 AT TIME STEP 2, STRESS PERIOD 5
 UBDSV3 SAVING "       HORT+DUNN" ON UNIT  61 AT TIME STEP 2, STRESS PERIOD 5
 UBDSV3 SAVING "  STORAGE CHANGE" ON UNIT  61 AT TIME STEP 2, STRESS PERIOD 5


UNSATURATED ZONE PACKAGE VOLUMETRIC BUDGET FOR  TIME STEP     2 STRESS PERIOD    5
  ------------------------------------------------------------------------------



     CUMULATIVE VOLUMES      L**3       RATES FOR THIS TIME STEP      L**3/T
     ------------------                 ------------------------

           IN:                                      IN:
           ---                                      ---
        INFILTRATION =     7560937.0553          INFILTRATION =           4.5387

          OUT:                                     OUT:
          ----                                     ----
              UZF ET =     7487024.6858                UZF ET =           5.5360
        UZF RECHARGE =       73224.0000          UZF RECHARGE =       0.0000E+00

            IN - OUT =         688.3695              IN - OUT =          -0.9974

          STORAGE:                                 STORAGE:
          --------                                 --------
      STORAGE CHANGE =         688.4001        STORAGE CHANGE =          -0.9974

 PERCENT DISCREPANCY IS DIFFERENCE BETWEEN IN-OUT MINUS CHANGE IN STORAGE
 DIVIDED BY THE AVERAGE OF IN AND OUT TIMES 100

 PERCENT DISCREPANCY =           0.00     PERCENT DISCREPANCY =           0.00






 

            AG WELLS      PERIOD    5   STEP   2
 AG WELL      1   LAYER   1   ROW     6   COL     4   RATE   -0.615197    
 AG WELL      2   LAYER   1   ROW     6   COL     5   RATE   -0.615197    
 AG WELL      3   LAYER   1   ROW     7   COL     4   RATE   -0.615197    
 AG WELL      4   LAYER   1   ROW     7   COL     5   RATE   -0.615197    
 AG WELL      5   LAYER   1   ROW     8   COL     4   RATE   -0.615197    
 AG WELL      6   LAYER   1   ROW     8   COL     5   RATE   -0.615197    
 
 

        GW IRRIGATION     PERIOD    5   STEP   2
 AG WELL      1   ROW     6   COL     4   RATE    0.615197    
 AG WELL      2   ROW     6   COL     5   RATE    0.615197    
 AG WELL      3   ROW     7   COL     4   RATE    0.615197    
 AG WELL      4   ROW     7   COL     5   RATE    0.615197    
 AG WELL      5   ROW     8   COL     4   RATE    0.615197    
 AG WELL      6   ROW     8   COL     5   RATE    0.615197    
 
1
  VOLUMETRIC BUDGET FOR AGRICULTURAL FIELDS AT  END OF TIME STEP    2, STRESS PERIOD   5
  ------------------------------------------------------------------------------

     CUMULATIVE VOLUMES      L**3       RATES FOR THIS TIME STEP      L**3/T
     ------------------                 ------------------------

           IN:                                      IN:
           ---                                      ---
               AG WELLS  =      652343.5000                 AG WELLS  =           3.6912
      DIVERSION SEGMENTS =           0.0000        DIVERSION SEGMENTS =           0.0000
       IRRIGATION PONDS  =           0.0000         IRRIGATION PONDS  =           0.0000
           GW IRRIGATION =           0.0000             GW IRRIGATION =           0.0000
           SW IRRIGATION =           0.0000             SW IRRIGATION =           0.0000
        SYSTEM LOSSES GW =           0.0000          SYSTEM LOSSES GW =           0.0000
        SYSTEM LOSSES SW =           0.0000          SYSTEM LOSSES SW =           0.0000

                TOTAL IN =      652343.5000                  TOTAL IN =           3.6912

          OUT:                                     OUT:
          ----                                     ----
               AG WELLS  =           0.0000                 AG WELLS  =           0.0000
      DIVERSION SEGMENTS =           0.0000        DIVERSION SEGMENTS =           0.0000
       IRRIGATION PONDS  =           0.0000         IRRIGATION PONDS  =           0.0000
           GW IRRIGATION =      652343.5000             GW IRRIGATION =           3.6912
           SW IRRIGATION =           0.0000             SW IRRIGATION =           0.0000
        SYSTEM LOSSES GW =           0.0000          SYSTEM LOSSES GW =           0.0000
        SYSTEM LOSSES SW =           0.0000          SYSTEM LOSSES SW =           0.0000

               TOTAL OUT =      652343.5000                 TOTAL OUT =           3.6912

                IN - OUT =           0.0000                  IN - OUT =           0.0000

     PERCENT DISCREPANCY =           0.00         PERCENT DISCREPANCY =           0.00



1
  VOLUMETRIC BUDGET FOR ENTIRE MODEL AT END OF TIME STEP    2, STRESS PERIOD   5
  ------------------------------------------------------------------------------

     CUMULATIVE VOLUMES      L**3       RATES FOR THIS TIME STEP      L**3/T
     ------------------                 ------------------------

           IN:                                      IN:
           ---                                      ---
             STORAGE     =     5542508.0000               STORAGE     =           7.0751
       CONSTANT HEAD     =           0.0000         CONSTANT HEAD     =           0.0000
     HEAD DEP BOUNDS     =     2326674.0000       HEAD DEP BOUNDS     =           0.2855
      STREAM LEAKAGE     =   101009216.0000        STREAM LEAKAGE     =          11.6071
        UZF RECHARGE     =       73223.9531          UZF RECHARGE     =           0.0000
               GW ET     =           0.0000                 GW ET     =           0.0000
     SURFACE LEAKAGE     =           0.0000       SURFACE LEAKAGE     =           0.0000
           AG WELLS      =           0.0000             AG WELLS      =           0.0000

                TOTAL IN =   108951624.0000                  TOTAL IN =          18.9678

          OUT:                                     OUT:
          ----                                     ----
             STORAGE     =    22628556.0000               STORAGE     =           1.4433
       CONSTANT HEAD     =           0.0000         CONSTANT HEAD     =           0.0000
     HEAD DEP BOUNDS     =     2379787.0000       HEAD DEP BOUNDS     =           0.2969
      STREAM LEAKAGE     =    83232464.0000        STREAM LEAKAGE     =          13.2480
        UZF RECHARGE     =           0.0000          UZF RECHARGE     =           0.0000
               GW ET     =       63605.7266                 GW ET     =           0.2882
     SURFACE LEAKAGE     =           0.0000       SURFACE LEAKAGE     =           0.0000
           AG WELLS      =      652343.5000             AG WELLS      =           3.6912

               TOTAL OUT =   108956760.0000                 TOTAL OUT =          18.9676

                IN - OUT =       -5136.0000                  IN - OUT =       1.4114E-04

     PERCENT DISCREPANCY =          -0.00         PERCENT DISCREPANCY =           0.00






         TIME SUMMARY AT END OF TIME STEP    2 IN STRESS PERIOD    5
                    SECONDS     MINUTES      HOURS       DAYS        YEARS
                    -----------------------------------------------------------
   TIME STEP LENGTH  87667.      1461.1      24.352      1.0147     2.77799E-03
 STRESS PERIOD TIME 1.75333E+05  2922.2      48.704      2.0293     5.55598E-03
         TOTAL TIME 8.15173E+06 1.35862E+05  2264.4      94.349     0.25831    
1
 
 SOLVING FOR HEAD 
                                                   Max.-Head-Change                         Max.-Flux-Residual
  Residual-Control   Outer-Iter.   Inner-Iter.     Column Row Layer    Maximum-Head-Change  Column Row Layer    Maximum-Flux-Residual          L2-NORM 
          0                 1           2             4   13     1      -0.1482687574E-01       4   13    1        -0.8683451812E+00      0.1506281778E+01
          0                 2           2             4    7     1      -0.1157124624E-01       5    6    1        -0.6258325175E+00      0.1534874089E+01
          0                 3           2             4    7     1       0.7875876403E-03       5    6    1         0.4378556080E-01      0.1073519824E+00
          0                 4           1             4    7     1      -0.3133885946E-04       5    6    1        -0.1790608125E-02      0.4388386381E-02

    ------------------------------------------------
       NWT REQUIRED            4 OUTER ITERATIONS 
       AND A TOTAL OF          7 INNER ITERATIONS.
    ------------------------------------------------

 OUTPUT CONTROL FOR STRESS PERIOD    5   TIME STEP    3
    PRINT BUDGET
    SAVE BUDGET
 UBDSV1 SAVING "         STORAGE" ON UNIT 102 AT TIME STEP 3, STRESS PERIOD 5
 UBDSV2 SAVING "   CONSTANT HEAD" ON UNIT 102 AT TIME STEP 3, STRESS PERIOD 5
 UBDSV1 SAVING "FLOW RIGHT FACE " ON UNIT 102 AT TIME STEP 3, STRESS PERIOD 5
 UBDSV1 SAVING "FLOW FRONT FACE " ON UNIT 102 AT TIME STEP 3, STRESS PERIOD 5

  HEAD DEP BOUNDS   PERIOD    5   STEP     3
 BOUNDARY      1   LAYER   1   ROW    13   COL     1   RATE   -0.296640    
 BOUNDARY      2   LAYER   1   ROW    14   COL     9   RATE    0.285472    



 STREAM LISTING     PERIOD      5   STEP        3

 LAYER ROW COL. STREAM  RCH.  FLOW INTO     FLOW TO   FLOW OUT OF   OVRLND.     DIRECT     STREAM       STREAM     STREAM     STREAM   STREAMBED  STREAMBED
                SEG.NO.  NO.  STRM. RCH.    AQUIFER    STRM. RCH.    RUNOFF     PRECIP       ET          HEAD       DEPTH      WIDTH   CONDCTNC.   GRADIENT

   1    1    1     1     1    2.8000E+01  2.5860E-01   2.7741E+01  0.000E+00  0.000E+00  0.000E+00  1.09427E+03  1.221E+00  1.361E+01  6.126E-02  1.407E+00
   1    2    2     1     2    2.7741E+01  4.0002E-01   2.7341E+01  0.000E+00  0.000E+00  0.000E+00  1.08928E+03  1.217E+00  1.355E+01  9.487E-02  1.406E+00
   1    3    3     1     3    2.7341E+01  3.4070E-01   2.7001E+01  0.000E+00  0.000E+00  0.000E+00  1.08363E+03  1.212E+00  1.348E+01  8.090E-02  1.404E+00
   1    3    4     1     4    2.7001E+01  3.1335E-01   2.6687E+01  0.000E+00  0.000E+00  0.000E+00  1.07861E+03  1.207E+00  1.342E+01  7.448E-02  1.402E+00
   1    4    5     2     1    2.4687E+01  3.2711E-01   2.4360E+01  0.000E+00  0.000E+00  0.000E+00  1.07313E+03  1.194E+00  1.200E+01  7.800E-02  1.398E+00
   1    5    6     2     2    2.4360E+01  2.5111E-01   2.4109E+01  0.000E+00  0.000E+00  0.000E+00  1.06769E+03  1.185E+00  1.200E+01  6.000E-02  1.395E+00
   1    6    6     2     3    2.4109E+01  2.5067E-01   2.3858E+01  0.000E+00  0.000E+00  0.000E+00  1.06297E+03  1.178E+00  1.200E+01  6.000E-02  1.393E+00
   1    7    6     2     4    2.3858E+01  2.5023E-01   2.3608E+01  0.000E+00  0.000E+00  0.000E+00  1.05825E+03  1.170E+00  1.200E+01  6.000E-02  1.390E+00
   1    8    6     2     5    2.3608E+01  2.4978E-01   2.3358E+01  0.000E+00  0.000E+00  0.000E+00  1.05352E+03  1.163E+00  1.200E+01  6.000E-02  1.388E+00
   1    3    5     3     1    2.0000E+00  2.8252E-01   1.7175E+00  0.000E+00  0.000E+00  0.000E+00  1.07555E+03  1.909E+00  9.636E+00  7.227E-02  1.955E+00
   1    3    6     3     2    1.7175E+00  2.4905E-01   1.4684E+00  0.000E+00  0.000E+00  0.000E+00  1.07264E+03  1.727E+00  8.909E+00  6.682E-02  1.864E+00
   1    3    7     3     3    1.4684E+00  1.9718E-01   1.2712E+00  0.000E+00  0.000E+00  0.000E+00  1.06987E+03  1.555E+00  8.218E+00  5.547E-02  1.777E+00
   1    4    8     3     4    1.2712E+00  2.2567E-01   1.0456E+00  0.000E+00  0.000E+00  0.000E+00  1.06682E+03  1.364E+00  7.455E+00  6.709E-02  1.682E+00
   1    5    8     3     5    1.0456E+00  1.5790E-01   8.8768E-01  0.000E+00  0.000E+00  0.000E+00  1.06362E+03  1.164E+00  6.655E+00  4.991E-02  1.582E+00
   1    6    8     3     6    8.8768E-01  5.5980E-02   8.3170E-01  0.000E+00  0.000E+00  0.000E+00  1.06158E+03  1.036E+00  6.145E+00  1.844E-02  1.518E+00
   1    5   10     4     1    1.0000E+01  9.0919E-02   9.9091E+00  0.000E+00  0.000E+00  0.000E+00  1.07836E+03  6.368E-01  1.000E+01  2.500E-02  1.212E+00
   1    5    9     4     2    9.9091E+00  1.8158E-01   9.7275E+00  0.000E+00  0.000E+00  0.000E+00  1.07154E+03  6.315E-01  1.000E+01  5.000E-02  1.211E+00
   1    6    8     4     3    9.7275E+00  1.2689E-01   9.6006E+00  0.000E+00  0.000E+00  0.000E+00  1.06381E+03  6.256E-01  1.000E+01  3.500E-02  1.209E+00
   1    6    8     5     1    1.0432E+01  2.2686E-01   1.0205E+01  0.000E+00  0.000E+00  0.000E+00  1.05868E+03  6.790E-01  1.542E+01  6.166E-02  1.226E+00
   1    7    7     5     2    1.0205E+01  2.7894E-01   9.9265E+00  0.000E+00  0.000E+00  0.000E+00  1.05417E+03  6.732E-01  1.519E+01  7.594E-02  1.224E+00
   1    8    7     5     3    9.9265E+00  1.9221E-01   9.7343E+00  0.000E+00  0.000E+00  0.000E+00  1.04992E+03  6.676E-01  1.497E+01  5.241E-02  1.223E+00
   1    8    6     5     4    9.7343E+00  1.3577E-01   9.5985E+00  0.000E+00  0.000E+00  0.000E+00  1.04691E+03  6.637E-01  1.482E+01  3.706E-02  1.221E+00
   1    9    6     6     1    3.2957E+01  2.6627E-01   3.2691E+01  0.000E+00  0.000E+00  0.000E+00  1.04417E+03  1.438E+00  1.200E+01  6.000E-02  1.479E+00
   1   10    7     6     2    3.2691E+01  2.6584E-01   3.2425E+01  0.000E+00  0.000E+00  0.000E+00  1.03961E+03  1.431E+00  1.200E+01  6.000E-02  1.477E+00
   1   11    7     6     3    3.2425E+01  2.6542E-01   3.2159E+01  0.000E+00  0.000E+00  0.000E+00  1.03506E+03  1.424E+00  1.200E+01  6.000E-02  1.475E+00
   1   12    7     6     4    3.2159E+01  2.6500E-01   3.1894E+01  0.000E+00  0.000E+00  0.000E+00  1.03051E+03  1.417E+00  1.200E+01  6.000E-02  1.472E+00
   1   13    7     6     5    3.1894E+01  3.4885E-03   3.1891E+01  0.000E+00  0.000E+00  0.000E+00  1.02732E+03  1.413E+00  1.200E+01  2.400E-02  4.845E-02
   1   14    9     7     1    1.5000E+02  1.3316E+00   1.4867E+02  0.000E+00  0.000E+00  0.000E+00  1.03987E+03  2.288E+00  5.529E+01  5.593E-01  7.936E-01
   1   13    8     7     2    1.4867E+02  1.8143E+00   1.4685E+02  0.000E+00  0.000E+00  0.000E+00  1.03478E+03  2.279E+00  5.526E+01  6.148E-01  9.837E-01
   1   13    7     7     3    1.4685E+02  1.4036E+00   1.4545E+02  0.000E+00  0.000E+00  0.000E+00  1.02969E+03  2.271E+00  5.522E+01  5.585E-01  8.378E-01
   1   13    6     8     1    1.7734E+02  8.5687E-01   1.7648E+02  0.000E+00  0.000E+00  0.000E+00  1.02487E+03  2.997E+00  4.345E+01  4.428E-01  6.451E-01
   1   13    5     8     2    1.7648E+02  9.2469E-02   1.7639E+02  0.000E+00  0.000E+00  0.000E+00  1.01862E+03  2.994E+00  4.341E+01  4.423E-01  6.968E-02
   1   13    4     8     3    1.7639E+02 -3.1829E+00   1.7957E+02  0.000E+00  0.000E+00  0.000E+00  1.01238E+03  3.003E+00  4.355E+01  4.438E+00 -2.391E-01
   1   13    3     8     4    1.7957E+02 -4.2869E+00   1.8386E+02  0.000E+00  0.000E+00  0.000E+00  1.00615E+03  3.027E+00  4.389E+01  4.473E+00 -3.195E-01
   1   13    2     8     5    1.8386E+02 -3.2456E+00   1.8711E+02  0.000E+00  0.000E+00  0.000E+00  9.99925E+02  3.050E+00  4.423E+01  4.507E+00 -2.400E-01
   1   13    1     8     6    1.8711E+02 -2.3492E+00   1.8946E+02  0.000E+00  0.000E+00  0.000E+00  9.94943E+02  3.067E+00  4.448E+01  2.720E+00 -2.879E-01



 UBDSV3 SAVING "           GW ET" ON UNIT  61 AT TIME STEP 3, STRESS PERIOD 5
 UBDSV3 SAVING "    UZF RECHARGE" ON UNIT  61 AT TIME STEP 3, STRESS PERIOD 5
 UBDSV3 SAVING " SURFACE LEAKAGE" ON UNIT  61 AT TIME STEP 3, STRESS PERIOD 5
 UBDSV3 SAVING "       HORT+DUNN" ON UNIT  61 AT TIME STEP 3, STRESS PERIOD 5
 UBDSV3 SAVING "  STORAGE CHANGE" ON UNIT  61 AT TIME STEP 3, STRESS PERIOD 5


UNSATURATED ZONE PACKAGE VOLUMETRIC BUDGET FOR  TIME STEP     3 STRESS PERIOD    5
  ------------------------------------------------------------------------------



     CUMULATIVE VOLUMES      L**3       RATES FOR THIS TIME STEP      L**3/T
     ------------------                 ------------------------

           IN:                                      IN:
           ---                                      ---
        INFILTRATION =     7961354.5356          INFILTRATION =           4.5675

          OUT:                                     OUT:
          ----                                     ----
              UZF ET =     7887442.1661                UZF ET =           4.5675
        UZF RECHARGE =       73224.0000          UZF RECHARGE =       0.0000E+00

            IN - OUT =         688.3695              IN - OUT =       0.0000E+00

          STORAGE:                                 STORAGE:
          --------                                 --------
      STORAGE CHANGE =         688.4001        STORAGE CHANGE =      -2.8667E-12

 PERCENT DISCREPANCY IS DIFFERENCE BETWEEN IN-OUT MINUS CHANGE IN STORAGE
 DIVIDED BY THE AVERAGE OF IN AND OUT TIMES 100

 PERCENT DISCREPANCY =           0.00     PERCENT DISCREPANCY =           0.00






 

            AG WELLS      PERIOD    5   STEP   3
 AG WELL      1   LAYER   1   ROW     6   COL     4   RATE   -0.620000    
 AG WELL      2   LAYER   1   ROW     6   COL     5   RATE   -0.620000    
 AG WELL      3   LAYER   1   ROW     7   COL     4   RATE   -0.620000    
 AG WELL      4   LAYER   1   ROW     7   COL     5   RATE   -0.620000    
 AG WELL      5   LAYER   1   ROW     8   COL     4   RATE   -0.620000    
 AG WELL      6   LAYER   1   ROW     8   COL     5   RATE   -0.620000    
 
 

        GW IRRIGATION     PERIOD    5   STEP   3
 AG WELL      1   ROW     6   COL     4   RATE    0.620000    
 AG WELL      2   ROW     6   COL     5   RATE    0.620000    
 AG WELL      3   ROW     7   COL     4   RATE    0.620000    
 AG WELL      4   ROW     7   COL     5   RATE    0.620000    
 AG WELL      5   ROW     8   COL     4   RATE    0.620000    
 AG WELL      6   ROW     8   COL     5   RATE    0.620000    
 
1
  VOLUMETRIC BUDGET FOR AGRICULTURAL FIELDS AT  END OF TIME STEP    3, STRESS PERIOD   5
  ------------------------------------------------------------------------------

     CUMULATIVE VOLUMES      L**3       RATES FOR THIS TIME STEP      L**3/T
     ------------------                 ------------------------

           IN:                                      IN:
           ---                                      ---
               AG WELLS  =      978463.5000                 AG WELLS  =           3.7200
      DIVERSION SEGMENTS =           0.0000        DIVERSION SEGMENTS =           0.0000
       IRRIGATION PONDS  =           0.0000         IRRIGATION PONDS  =           0.0000
           GW IRRIGATION =           0.0000             GW IRRIGATION =           0.0000
           SW IRRIGATION =           0.0000             SW IRRIGATION =           0.0000
        SYSTEM LOSSES GW =           0.0000          SYSTEM LOSSES GW =           0.0000
        SYSTEM LOSSES SW =           0.0000          SYSTEM LOSSES SW =           0.0000

                TOTAL IN =      978463.5000                  TOTAL IN =           3.7200

          OUT:                                     OUT:
          ----                                     ----
               AG WELLS  =           0.0000                 AG WELLS  =           0.0000
      DIVERSION SEGMENTS =           0.0000        DIVERSION SEGMENTS =           0.0000
       IRRIGATION PONDS  =           0.0000         IRRIGATION PONDS  =           0.0000
           GW IRRIGATION =      978463.5000             GW IRRIGATION =           3.7200
           SW IRRIGATION =           0.0000             SW IRRIGATION =           0.0000
        SYSTEM LOSSES GW =           0.0000          SYSTEM LOSSES GW =           0.0000
        SYSTEM LOSSES SW =           0.0000          SYSTEM LOSSES SW =           0.0000

               TOTAL OUT =      978463.5000                 TOTAL OUT =           3.7200

                IN - OUT =           0.0000                  IN - OUT =           0.0000

     PERCENT DISCREPANCY =           0.00         PERCENT DISCREPANCY =           0.00



1
  VOLUMETRIC BUDGET FOR ENTIRE MODEL AT END OF TIME STEP    3, STRESS PERIOD   5
  ------------------------------------------------------------------------------

     CUMULATIVE VOLUMES      L**3       RATES FOR THIS TIME STEP      L**3/T
     ------------------                 ------------------------

           IN:                                      IN:
           ---                                      ---
             STORAGE     =     6141098.5000               STORAGE     =           6.8280
       CONSTANT HEAD     =           0.0000         CONSTANT HEAD     =           0.0000
     HEAD DEP BOUNDS     =     2351700.5000       HEAD DEP BOUNDS     =           0.2855
      STREAM LEAKAGE     =   102026840.0000        STREAM LEAKAGE     =          11.6079
        UZF RECHARGE     =       73223.9531          UZF RECHARGE     =           0.0000
               GW ET     =           0.0000                 GW ET     =           0.0000
     SURFACE LEAKAGE     =           0.0000       SURFACE LEAKAGE     =           0.0000
           AG WELLS      =           0.0000             AG WELLS      =           0.0000

                TOTAL IN =   110592864.0000                  TOTAL IN =          18.7214

          OUT:                                     OUT:
          ----                                     ----
             STORAGE     =    22749936.0000               STORAGE     =           1.3846
       CONSTANT HEAD     =           0.0000         CONSTANT HEAD     =           0.0000
     HEAD DEP BOUNDS     =     2405792.5000       HEAD DEP BOUNDS     =           0.2966
      STREAM LEAKAGE     =    84377792.0000        STREAM LEAKAGE     =          13.0646
        UZF RECHARGE     =           0.0000          UZF RECHARGE     =           0.0000
               GW ET     =       86005.3438                 GW ET     =           0.2555
     SURFACE LEAKAGE     =           0.0000       SURFACE LEAKAGE     =           0.0000
           AG WELLS      =      978463.5000             AG WELLS      =           3.7200

               TOTAL OUT =   110597992.0000                 TOTAL OUT =          18.7213

                IN - OUT =       -5128.0000                  IN - OUT =       1.4305E-04

     PERCENT DISCREPANCY =          -0.00         PERCENT DISCREPANCY =           0.00






         TIME SUMMARY AT END OF TIME STEP    3 IN STRESS PERIOD    5
                    SECONDS     MINUTES      HOURS       DAYS        YEARS
                    -----------------------------------------------------------
   TIME STEP LENGTH  87667.      1461.1      24.352      1.0147     2.77799E-03
 STRESS PERIOD TIME 2.63000E+05  4383.3      73.056      3.0440     8.33397E-03
         TOTAL TIME 8.23939E+06 1.37323E+05  2288.7      95.363     0.26109    
1
 
 SOLVING FOR HEAD 
                                                   Max.-Head-Change                         Max.-Flux-Residual
  Residual-Control   Outer-Iter.   Inner-Iter.     Column Row Layer    Maximum-Head-Change  Column Row Layer    Maximum-Flux-Residual          L2-NORM 
          0                 1           2             4   13     1      -0.1316263233E-01       4   13    1        -0.7705521594E+00      0.1375863122E+01
          0                 2           2             4    7     1      -0.1157916833E-01       5    6    1        -0.6273294245E+00      0.1536285592E+01
          0                 3           2             4    7     1       0.7881271120E-03       5    6    1         0.4389060905E-01      0.1074564708E+00
          0                 4           1             4    7     1      -0.3136032523E-04       5    6    1        -0.1794930279E-02      0.4392918615E-02

    ------------------------------------------------
       NWT REQUIRED            4 OUTER ITERATIONS 
       AND A TOTAL OF          7 INNER ITERATIONS.
    ------------------------------------------------

 OUTPUT CONTROL FOR STRESS PERIOD    5   TIME STEP    4
    PRINT BUDGET
    SAVE BUDGET
 UBDSV1 SAVING "         STORAGE" ON UNIT 102 AT TIME STEP 4, STRESS PERIOD 5
 UBDSV2 SAVING "   CONSTANT HEAD" ON UNIT 102 AT TIME STEP 4, STRESS PERIOD 5
 UBDSV1 SAVING "FLOW RIGHT FACE " ON UNIT 102 AT TIME STEP 4, STRESS PERIOD 5
 UBDSV1 SAVING "FLOW FRONT FACE " ON UNIT 102 AT TIME STEP 4, STRESS PERIOD 5

  HEAD DEP BOUNDS   PERIOD    5   STEP     4
 BOUNDARY      1   LAYER   1   ROW    13   COL     1   RATE   -0.296394    
 BOUNDARY      2   LAYER   1   ROW    14   COL     9   RATE    0.285473    



 STREAM LISTING     PERIOD      5   STEP        4

 LAYER ROW COL. STREAM  RCH.  FLOW INTO     FLOW TO   FLOW OUT OF   OVRLND.     DIRECT     STREAM       STREAM     STREAM     STREAM   STREAMBED  STREAMBED
                SEG.NO.  NO.  STRM. RCH.    AQUIFER    STRM. RCH.    RUNOFF     PRECIP       ET          HEAD       DEPTH      WIDTH   CONDCTNC.   GRADIENT

   1    1    1     1     1    2.8000E+01  2.5860E-01   2.7741E+01  0.000E+00  0.000E+00  0.000E+00  1.09427E+03  1.221E+00  1.361E+01  6.126E-02  1.407E+00
   1    2    2     1     2    2.7741E+01  4.0002E-01   2.7341E+01  0.000E+00  0.000E+00  0.000E+00  1.08928E+03  1.217E+00  1.355E+01  9.487E-02  1.406E+00
   1    3    3     1     3    2.7341E+01  3.4070E-01   2.7001E+01  0.000E+00  0.000E+00  0.000E+00  1.08363E+03  1.212E+00  1.348E+01  8.090E-02  1.404E+00
   1    3    4     1     4    2.7001E+01  3.1335E-01   2.6687E+01  0.000E+00  0.000E+00  0.000E+00  1.07861E+03  1.207E+00  1.342E+01  7.448E-02  1.402E+00
   1    4    5     2     1    2.4687E+01  3.2711E-01   2.4360E+01  0.000E+00  0.000E+00  0.000E+00  1.07313E+03  1.194E+00  1.200E+01  7.800E-02  1.398E+00
   1    5    6     2     2    2.4360E+01  2.5111E-01   2.4109E+01  0.000E+00  0.000E+00  0.000E+00  1.06769E+03  1.185E+00  1.200E+01  6.000E-02  1.395E+00
   1    6    6     2     3    2.4109E+01  2.5067E-01   2.3858E+01  0.000E+00  0.000E+00  0.000E+00  1.06297E+03  1.178E+00  1.200E+01  6.000E-02  1.393E+00
   1    7    6     2     4    2.3858E+01  2.5023E-01   2.3608E+01  0.000E+00  0.000E+00  0.000E+00  1.05825E+03  1.170E+00  1.200E+01  6.000E-02  1.390E+00
   1    8    6     2     5    2.3608E+01  2.4978E-01   2.3358E+01  0.000E+00  0.000E+00  0.000E+00  1.05352E+03  1.163E+00  1.200E+01  6.000E-02  1.388E+00
   1    3    5     3     1    2.0000E+00  2.8252E-01   1.7175E+00  0.000E+00  0.000E+00  0.000E+00  1.07555E+03  1.909E+00  9.636E+00  7.227E-02  1.955E+00
   1    3    6     3     2    1.7175E+00  2.4905E-01   1.4684E+00  0.000E+00  0.000E+00  0.000E+00  1.07264E+03  1.727E+00  8.909E+00  6.682E-02  1.864E+00
   1    3    7     3     3    1.4684E+00  1.9718E-01   1.2712E+00  0.000E+00  0.000E+00  0.000E+00  1.06987E+03  1.555E+00  8.218E+00  5.547E-02  1.777E+00
   1    4    8     3     4    1.2712E+00  2.2567E-01   1.0456E+00  0.000E+00  0.000E+00  0.000E+00  1.06682E+03  1.364E+00  7.455E+00  6.709E-02  1.682E+00
   1    5    8     3     5    1.0456E+00  1.5790E-01   8.8768E-01  0.000E+00  0.000E+00  0.000E+00  1.06362E+03  1.164E+00  6.655E+00  4.991E-02  1.582E+00
   1    6    8     3     6    8.8768E-01  5.5980E-02   8.3170E-01  0.000E+00  0.000E+00  0.000E+00  1.06158E+03  1.036E+00  6.145E+00  1.844E-02  1.518E+00
   1    5   10     4     1    1.0000E+01  9.0919E-02   9.9091E+00  0.000E+00  0.000E+00  0.000E+00  1.07836E+03  6.368E-01  1.000E+01  2.500E-02  1.212E+00
   1    5    9     4     2    9.9091E+00  1.8158E-01   9.7275E+00  0.000E+00  0.000E+00  0.000E+00  1.07154E+03  6.315E-01  1.000E+01  5.000E-02  1.211E+00
   1    6    8     4     3    9.7275E+00  1.2689E-01   9.6006E+00  0.000E+00  0.000E+00  0.000E+00  1.06381E+03  6.256E-01  1.000E+01  3.500E-02  1.209E+00
   1    6    8     5     1    1.0432E+01  2.2686E-01   1.0205E+01  0.000E+00  0.000E+00  0.000E+00  1.05868E+03  6.790E-01  1.542E+01  6.166E-02  1.226E+00
   1    7    7     5     2    1.0205E+01  2.7894E-01   9.9265E+00  0.000E+00  0.000E+00  0.000E+00  1.05417E+03  6.732E-01  1.519E+01  7.594E-02  1.224E+00
   1    8    7     5     3    9.9265E+00  1.9221E-01   9.7343E+00  0.000E+00  0.000E+00  0.000E+00  1.04992E+03  6.676E-01  1.497E+01  5.241E-02  1.223E+00
   1    8    6     5     4    9.7343E+00  1.3577E-01   9.5985E+00  0.000E+00  0.000E+00  0.000E+00  1.04691E+03  6.637E-01  1.482E+01  3.706E-02  1.221E+00
   1    9    6     6     1    3.2957E+01  2.6627E-01   3.2691E+01  0.000E+00  0.000E+00  0.000E+00  1.04417E+03  1.438E+00  1.200E+01  6.000E-02  1.479E+00
   1   10    7     6     2    3.2691E+01  2.6584E-01   3.2425E+01  0.000E+00  0.000E+00  0.000E+00  1.03961E+03  1.431E+00  1.200E+01  6.000E-02  1.477E+00
   1   11    7     6     3    3.2425E+01  2.6542E-01   3.2159E+01  0.000E+00  0.000E+00  0.000E+00  1.03506E+03  1.424E+00  1.200E+01  6.000E-02  1.475E+00
   1   12    7     6     4    3.2159E+01  2.6500E-01   3.1894E+01  0.000E+00  0.000E+00  0.000E+00  1.03051E+03  1.417E+00  1.200E+01  6.000E-02  1.472E+00
   1   13    7     6     5    3.1894E+01  3.4784E-03   3.1891E+01  0.000E+00  0.000E+00  0.000E+00  1.02732E+03  1.413E+00  1.200E+01  2.400E-02  4.831E-02
   1   14    9     7     1    1.5000E+02  1.3316E+00   1.4867E+02  0.000E+00  0.000E+00  0.000E+00  1.03987E+03  2.288E+00  5.529E+01  5.593E-01  7.936E-01
   1   13    8     7     2    1.4867E+02  1.8142E+00   1.4685E+02  0.000E+00  0.000E+00  0.000E+00  1.03478E+03  2.279E+00  5.526E+01  6.148E-01  9.836E-01
   1   13    7     7     3    1.4685E+02  1.4033E+00   1.4545E+02  0.000E+00  0.000E+00  0.000E+00  1.02969E+03  2.271E+00  5.522E+01  5.585E-01  8.376E-01
   1   13    6     8     1    1.7734E+02  8.5754E-01   1.7648E+02  0.000E+00  0.000E+00  0.000E+00  1.02487E+03  2.997E+00  4.345E+01  4.428E-01  6.456E-01
   1   13    5     8     2    1.7648E+02  9.2975E-02   1.7639E+02  0.000E+00  0.000E+00  0.000E+00  1.01862E+03  2.994E+00  4.341E+01  4.423E-01  7.006E-02
   1   13    4     8     3    1.7639E+02 -3.1303E+00   1.7952E+02  0.000E+00  0.000E+00  0.000E+00  1.01238E+03  3.003E+00  4.355E+01  4.438E+00 -2.351E-01
   1   13    3     8     4    1.7952E+02 -4.2365E+00   1.8376E+02  0.000E+00  0.000E+00  0.000E+00  1.00615E+03  3.026E+00  4.388E+01  4.472E+00 -3.158E-01
   1   13    2     8     5    1.8376E+02 -3.1973E+00   1.8696E+02  0.000E+00  0.000E+00  0.000E+00  9.99924E+02  3.050E+00  4.422E+01  4.506E+00 -2.365E-01
   1   13    1     8     6    1.8696E+02 -2.3335E+00   1.8929E+02  0.000E+00  0.000E+00  0.000E+00  9.94942E+02  3.066E+00  4.446E+01  2.719E+00 -2.861E-01



 UBDSV3 SAVING "           GW ET" ON UNIT  61 AT TIME STEP 4, STRESS PERIOD 5
 UBDSV3 SAVING "    UZF RECHARGE" ON UNIT  61 AT TIME STEP 4, STRESS PERIOD 5
 UBDSV3 SAVING " SURFACE LEAKAGE" ON UNIT  61 AT TIME STEP 4, STRESS PERIOD 5
 UBDSV3 SAVING "       HORT+DUNN" ON UNIT  61 AT TIME STEP 4, STRESS PERIOD 5
 UBDSV3 SAVING "  STORAGE CHANGE" ON UNIT  61 AT TIME STEP 4, STRESS PERIOD 5


UNSATURATED ZONE PACKAGE VOLUMETRIC BUDGET FOR  TIME STEP     4 STRESS PERIOD    5
  ------------------------------------------------------------------------------



     CUMULATIVE VOLUMES      L**3       RATES FOR THIS TIME STEP      L**3/T
     ------------------                 ------------------------

           IN:                                      IN:
           ---                                      ---
        INFILTRATION =     8361772.0158          INFILTRATION =           4.5675

          OUT:                                     OUT:
          ----                                     ----
              UZF ET =     8287859.6463                UZF ET =           4.5675
        UZF RECHARGE =       73224.0000          UZF RECHARGE =       0.0000E+00

            IN - OUT =         688.3695              IN - OUT =       0.0000E+00

          STORAGE:                                 STORAGE:
          --------                                 --------
      STORAGE CHANGE =         688.4001        STORAGE CHANGE =      -2.8667E-12

 PERCENT DISCREPANCY IS DIFFERENCE BETWEEN IN-OUT MINUS CHANGE IN STORAGE
 DIVIDED BY THE AVERAGE OF IN AND OUT TIMES 100

 PERCENT DISCREPANCY =           0.00     PERCENT DISCREPANCY =           0.00






 

            AG WELLS      PERIOD    5   STEP   4
 AG WELL      1   LAYER   1   ROW     6   COL     4   RATE   -0.620000    
 AG WELL      2   LAYER   1   ROW     6   COL     5   RATE   -0.620000    
 AG WELL      3   LAYER   1   ROW     7   COL     4   RATE   -0.620000    
 AG WELL      4   LAYER   1   ROW     7   COL     5   RATE   -0.620000    
 AG WELL      5   LAYER   1   ROW     8   COL     4   RATE   -0.620000    
 AG WELL      6   LAYER   1   ROW     8   COL     5   RATE   -0.620000    
 
 

        GW IRRIGATION     PERIOD    5   STEP   4
 AG WELL      1   ROW     6   COL     4   RATE    0.620000    
 AG WELL      2   ROW     6   COL     5   RATE    0.620000    
 AG WELL      3   ROW     7   COL     4   RATE    0.620000    
 AG WELL      4   ROW     7   COL     5   RATE    0.620000    
 AG WELL      5   ROW     8   COL     4   RATE    0.620000    
 AG WELL      6   ROW     8   COL     5   RATE    0.620000    
 
1
  VOLUMETRIC BUDGET FOR AGRICULTURAL FIELDS AT  END OF TIME STEP    4, STRESS PERIOD   5
  ------------------------------------------------------------------------------

     CUMULATIVE VOLUMES      L**3       RATES FOR THIS TIME STEP      L**3/T
     ------------------                 ------------------------

           IN:                                      IN:
           ---                                      ---
               AG WELLS  =     1304583.5000                 AG WELLS  =           3.7200
      DIVERSION SEGMENTS =           0.0000        DIVERSION SEGMENTS =           0.0000
       IRRIGATION PONDS  =           0.0000         IRRIGATION PONDS  =           0.0000
           GW IRRIGATION =           0.0000             GW IRRIGATION =           0.0000
           SW IRRIGATION =           0.0000             SW IRRIGATION =           0.0000
        SYSTEM LOSSES GW =           0.0000          SYSTEM LOSSES GW =           0.0000
        SYSTEM LOSSES SW =           0.0000          SYSTEM LOSSES SW =           0.0000

                TOTAL IN =     1304583.5000                  TOTAL IN =           3.7200

          OUT:                                     OUT:
          ----                                     ----
               AG WELLS  =           0.0000                 AG WELLS  =           0.0000
      DIVERSION SEGMENTS =           0.0000        DIVERSION SEGMENTS =           0.0000
       IRRIGATION PONDS  =           0.0000         IRRIGATION PONDS  =           0.0000
           GW IRRIGATION =     1304583.5000             GW IRRIGATION =           3.7200
           SW IRRIGATION =           0.0000             SW IRRIGATION =           0.0000
        SYSTEM LOSSES GW =           0.0000          SYSTEM LOSSES GW =           0.0000
        SYSTEM LOSSES SW =           0.0000          SYSTEM LOSSES SW =           0.0000

               TOTAL OUT =     1304583.5000                 TOTAL OUT =           3.7200

                IN - OUT =           0.0000                  IN - OUT =           0.0000

     PERCENT DISCREPANCY =           0.00         PERCENT DISCREPANCY =           0.00



1
  VOLUMETRIC BUDGET FOR ENTIRE MODEL AT END OF TIME STEP    4, STRESS PERIOD   5
  ------------------------------------------------------------------------------

     CUMULATIVE VOLUMES      L**3       RATES FOR THIS TIME STEP      L**3/T
     ------------------                 ------------------------

           IN:                                      IN:
           ---                                      ---
             STORAGE     =     6717559.0000               STORAGE     =           6.5756
       CONSTANT HEAD     =           0.0000         CONSTANT HEAD     =           0.0000
     HEAD DEP BOUNDS     =     2376727.0000       HEAD DEP BOUNDS     =           0.2855
      STREAM LEAKAGE     =   103044536.0000        STREAM LEAKAGE     =          11.6087
        UZF RECHARGE     =       73223.9531          UZF RECHARGE     =           0.0000
               GW ET     =           0.0000                 GW ET     =           0.0000
     SURFACE LEAKAGE     =           0.0000       SURFACE LEAKAGE     =           0.0000
           AG WELLS      =           0.0000             AG WELLS      =           0.0000

                TOTAL IN =   112212048.0000                  TOTAL IN =          18.4698

          OUT:                                     OUT:
          ----                                     ----
             STORAGE     =    22866470.0000               STORAGE     =           1.3293
       CONSTANT HEAD     =           0.0000         CONSTANT HEAD     =           0.0000
     HEAD DEP BOUNDS     =     2431776.2500       HEAD DEP BOUNDS     =           0.2964
      STREAM LEAKAGE     =    85508488.0000        STREAM LEAKAGE     =          12.8977
        UZF RECHARGE     =           0.0000          UZF RECHARGE     =           0.0000
               GW ET     =      105843.7812                 GW ET     =           0.2263
     SURFACE LEAKAGE     =           0.0000       SURFACE LEAKAGE     =           0.0000
           AG WELLS      =     1304583.5000             AG WELLS      =           3.7200

               TOTAL OUT =   112217160.0000                 TOTAL OUT =          18.4696

                IN - OUT =       -5112.0000                  IN - OUT =       1.4305E-04

     PERCENT DISCREPANCY =          -0.00         PERCENT DISCREPANCY =           0.00






         TIME SUMMARY AT END OF TIME STEP    4 IN STRESS PERIOD    5
                    SECONDS     MINUTES      HOURS       DAYS        YEARS
                    -----------------------------------------------------------
   TIME STEP LENGTH  87667.      1461.1      24.352      1.0147     2.77799E-03
 STRESS PERIOD TIME 3.50667E+05  5844.4      97.407      4.0586     1.11120E-02
         TOTAL TIME 8.32706E+06 1.38784E+05  2313.1      96.378     0.26387    
1
 
 SOLVING FOR HEAD 
                                                   Max.-Head-Change                         Max.-Flux-Residual
  Residual-Control   Outer-Iter.   Inner-Iter.     Column Row Layer    Maximum-Head-Change  Column Row Layer    Maximum-Flux-Residual          L2-NORM 
          0                 1           2             4   13     1      -0.1169039541E-01       4   13    1        -0.6840652613E+00      0.1261072924E+01
          0                 2           2             4    7     1      -0.1158740857E-01       5    6    1        -0.6287483480E+00      0.1537835408E+01
          0                 3           2             4    7     1       0.7886882465E-03       5    6    1         0.4399017974E-01      0.1075698557E+00
          0                 4           1             4    7     1      -0.3138265331E-04       5    6    1        -0.1799026582E-02      0.4397957423E-02

    ------------------------------------------------
       NWT REQUIRED            4 OUTER ITERATIONS 
       AND A TOTAL OF          7 INNER ITERATIONS.
    ------------------------------------------------

 NO OUTPUT CONTROL FOR STRESS PERIOD    5   TIME STEP    5
 
 SOLVING FOR HEAD 
                                                   Max.-Head-Change                         Max.-Flux-Residual
  Residual-Control   Outer-Iter.   Inner-Iter.     Column Row Layer    Maximum-Head-Change  Column Row Layer    Maximum-Flux-Residual          L2-NORM 
          0                 1           2             2   13     1      -0.1064183012E-01       4   13    1        -0.6075530727E+00      0.1160451395E+01
          0                 2           2             4    7     1      -0.1159595790E-01       5    6    1        -0.6300931483E+00      0.1539483350E+01
          0                 3           2             4    7     1       0.7892704285E-03       5    6    1         0.4408088812E-01      0.1076866663E+00
          0                 4           1             4    7     1      -0.3140581859E-04       5    6    1        -0.1802404208E-02      0.4402793967E-02

    ------------------------------------------------
       NWT REQUIRED            4 OUTER ITERATIONS 
       AND A TOTAL OF          7 INNER ITERATIONS.
    ------------------------------------------------

 OUTPUT CONTROL FOR STRESS PERIOD    5   TIME STEP    6
    PRINT BUDGET
    SAVE BUDGET
 UBDSV1 SAVING "         STORAGE" ON UNIT 102 AT TIME STEP 6, STRESS PERIOD 5
 UBDSV2 SAVING "   CONSTANT HEAD" ON UNIT 102 AT TIME STEP 6, STRESS PERIOD 5
 UBDSV1 SAVING "FLOW RIGHT FACE " ON UNIT 102 AT TIME STEP 6, STRESS PERIOD 5
 UBDSV1 SAVING "FLOW FRONT FACE " ON UNIT 102 AT TIME STEP 6, STRESS PERIOD 5

  HEAD DEP BOUNDS   PERIOD    5   STEP     6
 BOUNDARY      1   LAYER   1   ROW    13   COL     1   RATE   -0.295931    
 BOUNDARY      2   LAYER   1   ROW    14   COL     9   RATE    0.285474    



 STREAM LISTING     PERIOD      5   STEP        6

 LAYER ROW COL. STREAM  RCH.  FLOW INTO     FLOW TO   FLOW OUT OF   OVRLND.     DIRECT     STREAM       STREAM     STREAM     STREAM   STREAMBED  STREAMBED
                SEG.NO.  NO.  STRM. RCH.    AQUIFER    STRM. RCH.    RUNOFF     PRECIP       ET          HEAD       DEPTH      WIDTH   CONDCTNC.   GRADIENT

   1    1    1     1     1    2.8000E+01  2.5860E-01   2.7742E+01  0.000E+00  0.000E+00  0.000E+00  1.09427E+03  1.221E+00  1.361E+01  6.126E-02  1.407E+00
   1    2    2     1     2    2.7742E+01  4.0002E-01   2.7341E+01  0.000E+00  0.000E+00  0.000E+00  1.08928E+03  1.217E+00  1.355E+01  9.487E-02  1.406E+00
   1    3    3     1     3    2.7341E+01  3.4070E-01   2.7001E+01  0.000E+00  0.000E+00  0.000E+00  1.08363E+03  1.212E+00  1.348E+01  8.090E-02  1.404E+00
   1    3    4     1     4    2.7001E+01  3.1335E-01   2.6687E+01  0.000E+00  0.000E+00  0.000E+00  1.07861E+03  1.207E+00  1.342E+01  7.448E-02  1.402E+00
   1    4    5     2     1    2.4687E+01  3.2711E-01   2.4360E+01  0.000E+00  0.000E+00  0.000E+00  1.07313E+03  1.194E+00  1.200E+01  7.800E-02  1.398E+00
   1    5    6     2     2    2.4360E+01  2.5111E-01   2.4109E+01  0.000E+00  0.000E+00  0.000E+00  1.06769E+03  1.185E+00  1.200E+01  6.000E-02  1.395E+00
   1    6    6     2     3    2.4109E+01  2.5067E-01   2.3859E+01  0.000E+00  0.000E+00  0.000E+00  1.06297E+03  1.178E+00  1.200E+01  6.000E-02  1.393E+00
   1    7    6     2     4    2.3859E+01  2.5023E-01   2.3608E+01  0.000E+00  0.000E+00  0.000E+00  1.05825E+03  1.170E+00  1.200E+01  6.000E-02  1.390E+00
   1    8    6     2     5    2.3608E+01  2.4978E-01   2.3359E+01  0.000E+00  0.000E+00  0.000E+00  1.05352E+03  1.163E+00  1.200E+01  6.000E-02  1.388E+00
   1    3    5     3     1    2.0000E+00  2.8252E-01   1.7175E+00  0.000E+00  0.000E+00  0.000E+00  1.07555E+03  1.909E+00  9.636E+00  7.227E-02  1.955E+00
   1    3    6     3     2    1.7175E+00  2.4905E-01   1.4684E+00  0.000E+00  0.000E+00  0.000E+00  1.07264E+03  1.727E+00  8.909E+00  6.682E-02  1.864E+00
   1    3    7     3     3    1.4684E+00  1.9718E-01   1.2712E+00  0.000E+00  0.000E+00  0.000E+00  1.06987E+03  1.555E+00  8.218E+00  5.547E-02  1.777E+00
   1    4    8     3     4    1.2712E+00  2.2567E-01   1.0456E+00  0.000E+00  0.000E+00  0.000E+00  1.06682E+03  1.364E+00  7.455E+00  6.709E-02  1.682E+00
   1    5    8     3     5    1.0456E+00  1.5790E-01   8.8768E-01  0.000E+00  0.000E+00  0.000E+00  1.06362E+03  1.164E+00  6.655E+00  4.991E-02  1.582E+00
   1    6    8     3     6    8.8768E-01  5.5980E-02   8.3170E-01  0.000E+00  0.000E+00  0.000E+00  1.06158E+03  1.036E+00  6.145E+00  1.844E-02  1.518E+00
   1    5   10     4     1    1.0000E+01  9.0919E-02   9.9091E+00  0.000E+00  0.000E+00  0.000E+00  1.07836E+03  6.368E-01  1.000E+01  2.500E-02  1.212E+00
   1    5    9     4     2    9.9091E+00  1.8158E-01   9.7275E+00  0.000E+00  0.000E+00  0.000E+00  1.07154E+03  6.315E-01  1.000E+01  5.000E-02  1.211E+00
   1    6    8     4     3    9.7275E+00  1.2689E-01   9.6006E+00  0.000E+00  0.000E+00  0.000E+00  1.06381E+03  6.256E-01  1.000E+01  3.500E-02  1.209E+00
   1    6    8     5     1    1.0432E+01  2.2686E-01   1.0205E+01  0.000E+00  0.000E+00  0.000E+00  1.05868E+03  6.790E-01  1.542E+01  6.166E-02  1.226E+00
   1    7    7     5     2    1.0205E+01  2.7894E-01   9.9265E+00  0.000E+00  0.000E+00  0.000E+00  1.05417E+03  6.732E-01  1.519E+01  7.594E-02  1.224E+00
   1    8    7     5     3    9.9265E+00  1.9221E-01   9.7343E+00  0.000E+00  0.000E+00  0.000E+00  1.04992E+03  6.676E-01  1.497E+01  5.241E-02  1.223E+00
   1    8    6     5     4    9.7343E+00  1.3577E-01   9.5985E+00  0.000E+00  0.000E+00  0.000E+00  1.04691E+03  6.637E-01  1.482E+01  3.706E-02  1.221E+00
   1    9    6     6     1    3.2957E+01  2.6627E-01   3.2691E+01  0.000E+00  0.000E+00  0.000E+00  1.04417E+03  1.438E+00  1.200E+01  6.000E-02  1.479E+00
   1   10    7     6     2    3.2691E+01  2.6585E-01   3.2425E+01  0.000E+00  0.000E+00  0.000E+00  1.03961E+03  1.431E+00  1.200E+01  6.000E-02  1.477E+00
   1   11    7     6     3    3.2425E+01  2.6542E-01   3.2160E+01  0.000E+00  0.000E+00  0.000E+00  1.03506E+03  1.424E+00  1.200E+01  6.000E-02  1.475E+00
   1   12    7     6     4    3.2160E+01  2.6500E-01   3.1895E+01  0.000E+00  0.000E+00  0.000E+00  1.03051E+03  1.417E+00  1.200E+01  6.000E-02  1.472E+00
   1   13    7     6     5    3.1895E+01  3.4601E-03   3.1891E+01  0.000E+00  0.000E+00  0.000E+00  1.02732E+03  1.413E+00  1.200E+01  2.400E-02  4.806E-02
   1   14    9     7     1    1.5000E+02  1.3316E+00   1.4867E+02  0.000E+00  0.000E+00  0.000E+00  1.03987E+03  2.288E+00  5.529E+01  5.593E-01  7.936E-01
   1   13    8     7     2    1.4867E+02  1.8139E+00   1.4685E+02  0.000E+00  0.000E+00  0.000E+00  1.03478E+03  2.279E+00  5.526E+01  6.148E-01  9.835E-01
   1   13    7     7     3    1.4685E+02  1.4029E+00   1.4545E+02  0.000E+00  0.000E+00  0.000E+00  1.02969E+03  2.271E+00  5.522E+01  5.585E-01  8.374E-01
   1   13    6     8     1    1.7734E+02  8.5882E-01   1.7648E+02  0.000E+00  0.000E+00  0.000E+00  1.02487E+03  2.997E+00  4.345E+01  4.428E-01  6.465E-01
   1   13    5     8     2    1.7648E+02  9.4079E-02   1.7639E+02  0.000E+00  0.000E+00  0.000E+00  1.01862E+03  2.994E+00  4.341E+01  4.423E-01  7.090E-02
   1   13    4     8     3    1.7639E+02 -3.0422E+00   1.7943E+02  0.000E+00  0.000E+00  0.000E+00  1.01238E+03  3.003E+00  4.354E+01  4.437E+00 -2.285E-01
   1   13    3     8     4    1.7943E+02 -4.1505E+00   1.8358E+02  0.000E+00  0.000E+00  0.000E+00  1.00615E+03  3.026E+00  4.387E+01  4.471E+00 -3.095E-01
   1   13    2     8     5    1.8358E+02 -3.1109E+00   1.8669E+02  0.000E+00  0.000E+00  0.000E+00  9.99923E+02  3.048E+00  4.420E+01  4.504E+00 -2.302E-01
   1   13    1     8     6    1.8669E+02 -2.3037E+00   1.8900E+02  0.000E+00  0.000E+00  0.000E+00  9.94940E+02  3.065E+00  4.444E+01  2.717E+00 -2.826E-01



 UBDSV3 SAVING "           GW ET" ON UNIT  61 AT TIME STEP 6, STRESS PERIOD 5
 UBDSV3 SAVING "    UZF RECHARGE" ON UNIT  61 AT TIME STEP 6, STRESS PERIOD 5
 UBDSV3 SAVING " SURFACE LEAKAGE" ON UNIT  61 AT TIME STEP 6, STRESS PERIOD 5
 UBDSV3 SAVING "       HORT+DUNN" ON UNIT  61 AT TIME STEP 6, STRESS PERIOD 5
 UBDSV3 SAVING "  STORAGE CHANGE" ON UNIT  61 AT TIME STEP 6, STRESS PERIOD 5


UNSATURATED ZONE PACKAGE VOLUMETRIC BUDGET FOR  TIME STEP     6 STRESS PERIOD    5
  ------------------------------------------------------------------------------



     CUMULATIVE VOLUMES      L**3       RATES FOR THIS TIME STEP      L**3/T
     ------------------                 ------------------------

           IN:                                      IN:
           ---                                      ---
        INFILTRATION =     9162606.9763          INFILTRATION =           4.5675

          OUT:                                     OUT:
          ----                                     ----
              UZF ET =     9088694.6069                UZF ET =           4.5675
        UZF RECHARGE =       73224.0000          UZF RECHARGE =       0.0000E+00

            IN - OUT =         688.3695              IN - OUT =       0.0000E+00

          STORAGE:                                 STORAGE:
          --------                                 --------
      STORAGE CHANGE =         688.4001        STORAGE CHANGE =      -2.8667E-12

 PERCENT DISCREPANCY IS DIFFERENCE BETWEEN IN-OUT MINUS CHANGE IN STORAGE
 DIVIDED BY THE AVERAGE OF IN AND OUT TIMES 100

 PERCENT DISCREPANCY =           0.00     PERCENT DISCREPANCY =           0.00






 

            AG WELLS      PERIOD    5   STEP   6
 AG WELL      1   LAYER   1   ROW     6   COL     4   RATE   -0.620000    
 AG WELL      2   LAYER   1   ROW     6   COL     5   RATE   -0.620000    
 AG WELL      3   LAYER   1   ROW     7   COL     4   RATE   -0.620000    
 AG WELL      4   LAYER   1   ROW     7   COL     5   RATE   -0.620000    
 AG WELL      5   LAYER   1   ROW     8   COL     4   RATE   -0.620000    
 AG WELL      6   LAYER   1   ROW     8   COL     5   RATE   -0.620000    
 
 

        GW IRRIGATION     PERIOD    5   STEP   6
 AG WELL      1   ROW     6   COL     4   RATE    0.620000    
 AG WELL      2   ROW     6   COL     5   RATE    0.620000    
 AG WELL      3   ROW     7   COL     4   RATE    0.620000    
 AG WELL      4   ROW     7   COL     5   RATE    0.620000    
 AG WELL      5   ROW     8   COL     4   RATE    0.620000    
 AG WELL      6   ROW     8   COL     5   RATE    0.620000    
 
1
  VOLUMETRIC BUDGET FOR AGRICULTURAL FIELDS AT  END OF TIME STEP    6, STRESS PERIOD   5
  ------------------------------------------------------------------------------

     CUMULATIVE VOLUMES      L**3       RATES FOR THIS TIME STEP      L**3/T
     ------------------                 ------------------------

           IN:                                      IN:
           ---                                      ---
               AG WELLS  =     1956823.5000                 AG WELLS  =           3.7200
      DIVERSION SEGMENTS =           0.0000        DIVERSION SEGMENTS =           0.0000
       IRRIGATION PONDS  =           0.0000         IRRIGATION PONDS  =           0.0000
           GW IRRIGATION =           0.0000             GW IRRIGATION =           0.0000
           SW IRRIGATION =           0.0000             SW IRRIGATION =           0.0000
        SYSTEM LOSSES GW =           0.0000          SYSTEM LOSSES GW =           0.0000
        SYSTEM LOSSES SW =           0.0000          SYSTEM LOSSES SW =           0.0000

                TOTAL IN =     1956823.5000                  TOTAL IN =           3.7200

          OUT:                                     OUT:
          ----                                     ----
               AG WELLS  =           0.0000                 AG WELLS  =           0.0000
      DIVERSION SEGMENTS =           0.0000        DIVERSION SEGMENTS =           0.0000
       IRRIGATION PONDS  =           0.0000         IRRIGATION PONDS  =           0.0000
           GW IRRIGATION =     1956823.5000             GW IRRIGATION =           3.7200
           SW IRRIGATION =           0.0000             SW IRRIGATION =           0.0000
        SYSTEM LOSSES GW =           0.0000          SYSTEM LOSSES GW =           0.0000
        SYSTEM LOSSES SW =           0.0000          SYSTEM LOSSES SW =           0.0000

               TOTAL OUT =     1956823.5000                 TOTAL OUT =           3.7200

                IN - OUT =           0.0000                  IN - OUT =           0.0000

     PERCENT DISCREPANCY =           0.00         PERCENT DISCREPANCY =           0.00



1
  VOLUMETRIC BUDGET FOR ENTIRE MODEL AT END OF TIME STEP    6, STRESS PERIOD   5
  ------------------------------------------------------------------------------

     CUMULATIVE VOLUMES      L**3       RATES FOR THIS TIME STEP      L**3/T
     ------------------                 ------------------------

           IN:                                      IN:
           ---                                      ---
             STORAGE     =     7814576.0000               STORAGE     =           6.1579
       CONSTANT HEAD     =           0.0000         CONSTANT HEAD     =           0.0000
     HEAD DEP BOUNDS     =     2426780.0000       HEAD DEP BOUNDS     =           0.2855
      STREAM LEAKAGE     =   105080144.0000        STREAM LEAKAGE     =          11.6104
        UZF RECHARGE     =       73223.9531          UZF RECHARGE     =           0.0000
               GW ET     =           0.0000                 GW ET     =           0.0000
     SURFACE LEAKAGE     =           0.0000       SURFACE LEAKAGE     =           0.0000
           AG WELLS      =           0.0000             AG WELLS      =           0.0000

                TOTAL IN =   115394728.0000                  TOTAL IN =          18.0537

          OUT:                                     OUT:
          ----                                     ----
             STORAGE     =    23089314.0000               STORAGE     =           1.2535
       CONSTANT HEAD     =           0.0000         CONSTANT HEAD     =           0.0000
     HEAD DEP BOUNDS     =     2483682.7500       HEAD DEP BOUNDS     =           0.2959
      STREAM LEAKAGE     =    87731104.0000        STREAM LEAKAGE     =          12.6073
        UZF RECHARGE     =           0.0000          UZF RECHARGE     =           0.0000
               GW ET     =      138892.0781                 GW ET     =           0.1768
     SURFACE LEAKAGE     =           0.0000       SURFACE LEAKAGE     =           0.0000
           AG WELLS      =     1956823.5000             AG WELLS      =           3.7200

               TOTAL OUT =   115399816.0000                 TOTAL OUT =          18.0536

                IN - OUT =       -5088.0000                  IN - OUT =       1.4687E-04

     PERCENT DISCREPANCY =          -0.00         PERCENT DISCREPANCY =           0.00






         TIME SUMMARY AT END OF TIME STEP    6 IN STRESS PERIOD    5
                    SECONDS     MINUTES      HOURS       DAYS        YEARS
                    -----------------------------------------------------------
   TIME STEP LENGTH  87667.      1461.1      24.352      1.0147     2.77799E-03
 STRESS PERIOD TIME 5.26000E+05  8766.7      146.11      6.0880     1.66679E-02
         TOTAL TIME 8.50239E+06 1.41707E+05  2361.8      98.407     0.26942    
1
 
 SOLVING FOR HEAD 
                                                   Max.-Head-Change                         Max.-Flux-Residual
  Residual-Control   Outer-Iter.   Inner-Iter.     Column Row Layer    Maximum-Head-Change  Column Row Layer    Maximum-Flux-Residual          L2-NORM 
          0                 1           2             2   13     1      -0.9847490810E-02       2   13    1        -0.5543478042E+00      0.1072714636E+01
          0                 2           2             4    7     1      -0.1160478199E-01       5    6    1        -0.6313673217E+00      0.1541196627E+01
          0                 3           2             5    7     1       0.7868203965E-03       5    6    1         0.4417059625E-01      0.1077012887E+00
          0                 4           1             5    7     1      -0.3130836976E-04       5    6    1        -0.1806123315E-02      0.4403498264E-02

    ------------------------------------------------
       NWT REQUIRED            4 OUTER ITERATIONS 
       AND A TOTAL OF          7 INNER ITERATIONS.
    ------------------------------------------------

 OUTPUT CONTROL FOR STRESS PERIOD    5   TIME STEP    7
    PRINT BUDGET
    SAVE BUDGET
 UBDSV1 SAVING "         STORAGE" ON UNIT 102 AT TIME STEP 7, STRESS PERIOD 5
 UBDSV2 SAVING "   CONSTANT HEAD" ON UNIT 102 AT TIME STEP 7, STRESS PERIOD 5
 UBDSV1 SAVING "FLOW RIGHT FACE " ON UNIT 102 AT TIME STEP 7, STRESS PERIOD 5
 UBDSV1 SAVING "FLOW FRONT FACE " ON UNIT 102 AT TIME STEP 7, STRESS PERIOD 5

  HEAD DEP BOUNDS   PERIOD    5   STEP     7
 BOUNDARY      1   LAYER   1   ROW    13   COL     1   RATE   -0.295713    
 BOUNDARY      2   LAYER   1   ROW    14   COL     9   RATE    0.285475    



 STREAM LISTING     PERIOD      5   STEP        7

 LAYER ROW COL. STREAM  RCH.  FLOW INTO     FLOW TO   FLOW OUT OF   OVRLND.     DIRECT     STREAM       STREAM     STREAM     STREAM   STREAMBED  STREAMBED
                SEG.NO.  NO.  STRM. RCH.    AQUIFER    STRM. RCH.    RUNOFF     PRECIP       ET          HEAD       DEPTH      WIDTH   CONDCTNC.   GRADIENT

   1    1    1     1     1    2.8000E+01  2.5860E-01   2.7742E+01  0.000E+00  0.000E+00  0.000E+00  1.09427E+03  1.221E+00  1.361E+01  6.126E-02  1.407E+00
   1    2    2     1     2    2.7742E+01  4.0002E-01   2.7341E+01  0.000E+00  0.000E+00  0.000E+00  1.08928E+03  1.217E+00  1.355E+01  9.487E-02  1.406E+00
   1    3    3     1     3    2.7341E+01  3.4070E-01   2.7001E+01  0.000E+00  0.000E+00  0.000E+00  1.08363E+03  1.212E+00  1.348E+01  8.090E-02  1.404E+00
   1    3    4     1     4    2.7001E+01  3.1335E-01   2.6687E+01  0.000E+00  0.000E+00  0.000E+00  1.07861E+03  1.207E+00  1.342E+01  7.448E-02  1.402E+00
   1    4    5     2     1    2.4687E+01  3.2711E-01   2.4360E+01  0.000E+00  0.000E+00  0.000E+00  1.07313E+03  1.194E+00  1.200E+01  7.800E-02  1.398E+00
   1    5    6     2     2    2.4360E+01  2.5111E-01   2.4109E+01  0.000E+00  0.000E+00  0.000E+00  1.06769E+03  1.185E+00  1.200E+01  6.000E-02  1.395E+00
   1    6    6     2     3    2.4109E+01  2.5067E-01   2.3859E+01  0.000E+00  0.000E+00  0.000E+00  1.06297E+03  1.178E+00  1.200E+01  6.000E-02  1.393E+00
   1    7    6     2     4    2.3859E+01  2.5023E-01   2.3608E+01  0.000E+00  0.000E+00  0.000E+00  1.05825E+03  1.170E+00  1.200E+01  6.000E-02  1.390E+00
   1    8    6     2     5    2.3608E+01  2.4978E-01   2.3359E+01  0.000E+00  0.000E+00  0.000E+00  1.05352E+03  1.163E+00  1.200E+01  6.000E-02  1.388E+00
   1    3    5     3     1    2.0000E+00  2.8252E-01   1.7175E+00  0.000E+00  0.000E+00  0.000E+00  1.07555E+03  1.909E+00  9.636E+00  7.227E-02  1.955E+00
   1    3    6     3     2    1.7175E+00  2.4905E-01   1.4684E+00  0.000E+00  0.000E+00  0.000E+00  1.07264E+03  1.727E+00  8.909E+00  6.682E-02  1.864E+00
   1    3    7     3     3    1.4684E+00  1.9718E-01   1.2712E+00  0.000E+00  0.000E+00  0.000E+00  1.06987E+03  1.555E+00  8.218E+00  5.547E-02  1.777E+00
   1    4    8     3     4    1.2712E+00  2.2567E-01   1.0456E+00  0.000E+00  0.000E+00  0.000E+00  1.06682E+03  1.364E+00  7.455E+00  6.709E-02  1.682E+00
   1    5    8     3     5    1.0456E+00  1.5790E-01   8.8768E-01  0.000E+00  0.000E+00  0.000E+00  1.06362E+03  1.164E+00  6.655E+00  4.991E-02  1.582E+00
   1    6    8     3     6    8.8768E-01  5.5980E-02   8.3170E-01  0.000E+00  0.000E+00  0.000E+00  1.06158E+03  1.036E+00  6.145E+00  1.844E-02  1.518E+00
   1    5   10     4     1    1.0000E+01  9.0919E-02   9.9091E+00  0.000E+00  0.000E+00  0.000E+00  1.07836E+03  6.368E-01  1.000E+01  2.500E-02  1.212E+00
   1    5    9     4     2    9.9091E+00  1.8158E-01   9.7275E+00  0.000E+00  0.000E+00  0.000E+00  1.07154E+03  6.315E-01  1.000E+01  5.000E-02  1.211E+00
   1    6    8     4     3    9.7275E+00  1.2689E-01   9.6006E+00  0.000E+00  0.000E+00  0.000E+00  1.06381E+03  6.256E-01  1.000E+01  3.500E-02  1.209E+00
   1    6    8     5     1    1.0432E+01  2.2686E-01   1.0205E+01  0.000E+00  0.000E+00  0.000E+00  1.05868E+03  6.790E-01  1.542E+01  6.166E-02  1.226E+00
   1    7    7     5     2    1.0205E+01  2.7894E-01   9.9265E+00  0.000E+00  0.000E+00  0.000E+00  1.05417E+03  6.732E-01  1.519E+01  7.594E-02  1.224E+00
   1    8    7     5     3    9.9265E+00  1.9221E-01   9.7343E+00  0.000E+00  0.000E+00  0.000E+00  1.04992E+03  6.676E-01  1.497E+01  5.241E-02  1.223E+00
   1    8    6     5     4    9.7343E+00  1.3577E-01   9.5985E+00  0.000E+00  0.000E+00  0.000E+00  1.04691E+03  6.637E-01  1.482E+01  3.706E-02  1.221E+00
   1    9    6     6     1    3.2957E+01  2.6627E-01   3.2691E+01  0.000E+00  0.000E+00  0.000E+00  1.04417E+03  1.438E+00  1.200E+01  6.000E-02  1.479E+00
   1   10    7     6     2    3.2691E+01  2.6585E-01   3.2425E+01  0.000E+00  0.000E+00  0.000E+00  1.03961E+03  1.431E+00  1.200E+01  6.000E-02  1.477E+00
   1   11    7     6     3    3.2425E+01  2.6542E-01   3.2160E+01  0.000E+00  0.000E+00  0.000E+00  1.03506E+03  1.424E+00  1.200E+01  6.000E-02  1.475E+00
   1   12    7     6     4    3.2160E+01  2.6500E-01   3.1895E+01  0.000E+00  0.000E+00  0.000E+00  1.03051E+03  1.417E+00  1.200E+01  6.000E-02  1.472E+00
   1   13    7     6     5    3.1895E+01  3.4517E-03   3.1891E+01  0.000E+00  0.000E+00  0.000E+00  1.02732E+03  1.413E+00  1.200E+01  2.400E-02  4.794E-02
   1   14    9     7     1    1.5000E+02  1.3316E+00   1.4867E+02  0.000E+00  0.000E+00  0.000E+00  1.03987E+03  2.288E+00  5.529E+01  5.593E-01  7.936E-01
   1   13    8     7     2    1.4867E+02  1.8137E+00   1.4685E+02  0.000E+00  0.000E+00  0.000E+00  1.03478E+03  2.279E+00  5.526E+01  6.148E-01  9.834E-01
   1   13    7     7     3    1.4685E+02  1.4027E+00   1.4545E+02  0.000E+00  0.000E+00  0.000E+00  1.02969E+03  2.271E+00  5.522E+01  5.585E-01  8.372E-01
   1   13    6     8     1    1.7734E+02  8.5941E-01   1.7648E+02  0.000E+00  0.000E+00  0.000E+00  1.02487E+03  2.997E+00  4.345E+01  4.428E-01  6.470E-01
   1   13    5     8     2    1.7648E+02  9.4662E-02   1.7639E+02  0.000E+00  0.000E+00  0.000E+00  1.01862E+03  2.994E+00  4.341E+01  4.423E-01  7.133E-02
   1   13    4     8     3    1.7639E+02 -3.0053E+00   1.7939E+02  0.000E+00  0.000E+00  0.000E+00  1.01238E+03  3.003E+00  4.354E+01  4.437E+00 -2.258E-01
   1   13    3     8     4    1.7939E+02 -4.1137E+00   1.8351E+02  0.000E+00  0.000E+00  0.000E+00  1.00615E+03  3.025E+00  4.387E+01  4.470E+00 -3.068E-01
   1   13    2     8     5    1.8351E+02 -3.0725E+00   1.8658E+02  0.000E+00  0.000E+00  0.000E+00  9.99923E+02  3.048E+00  4.419E+01  4.503E+00 -2.274E-01
   1   13    1     8     6    1.8658E+02 -2.2896E+00   1.8887E+02  0.000E+00  0.000E+00  0.000E+00  9.94939E+02  3.064E+00  4.443E+01  2.716E+00 -2.809E-01



 UBDSV3 SAVING "           GW ET" ON UNIT  61 AT TIME STEP 7, STRESS PERIOD 5
 UBDSV3 SAVING "    UZF RECHARGE" ON UNIT  61 AT TIME STEP 7, STRESS PERIOD 5
 UBDSV3 SAVING " SURFACE LEAKAGE" ON UNIT  61 AT TIME STEP 7, STRESS PERIOD 5
 UBDSV3 SAVING "       HORT+DUNN" ON UNIT  61 AT TIME STEP 7, STRESS PERIOD 5
 UBDSV3 SAVING "  STORAGE CHANGE" ON UNIT  61 AT TIME STEP 7, STRESS PERIOD 5


UNSATURATED ZONE PACKAGE VOLUMETRIC BUDGET FOR  TIME STEP     7 STRESS PERIOD    5
  ------------------------------------------------------------------------------



     CUMULATIVE VOLUMES      L**3       RATES FOR THIS TIME STEP      L**3/T
     ------------------                 ------------------------

           IN:                                      IN:
           ---                                      ---
        INFILTRATION =     9563024.4566          INFILTRATION =           4.5675

          OUT:                                     OUT:
          ----                                     ----
              UZF ET =     9489112.0871                UZF ET =           4.5675
        UZF RECHARGE =       73224.0000          UZF RECHARGE =       0.0000E+00

            IN - OUT =         688.3695              IN - OUT =       0.0000E+00

          STORAGE:                                 STORAGE:
          --------                                 --------
      STORAGE CHANGE =         688.4001        STORAGE CHANGE =      -2.8667E-12

 PERCENT DISCREPANCY IS DIFFERENCE BETWEEN IN-OUT MINUS CHANGE IN STORAGE
 DIVIDED BY THE AVERAGE OF IN AND OUT TIMES 100

 PERCENT DISCREPANCY =           0.00     PERCENT DISCREPANCY =           0.00






 

            AG WELLS      PERIOD    5   STEP   7
 AG WELL      1   LAYER   1   ROW     6   COL     4   RATE   -0.620000    
 AG WELL      2   LAYER   1   ROW     6   COL     5   RATE   -0.620000    
 AG WELL      3   LAYER   1   ROW     7   COL     4   RATE   -0.620000    
 AG WELL      4   LAYER   1   ROW     7   COL     5   RATE   -0.620000    
 AG WELL      5   LAYER   1   ROW     8   COL     4   RATE   -0.620000    
 AG WELL      6   LAYER   1   ROW     8   COL     5   RATE   -0.620000    
 
 

        GW IRRIGATION     PERIOD    5   STEP   7
 AG WELL      1   ROW     6   COL     4   RATE    0.620000    
 AG WELL      2   ROW     6   COL     5   RATE    0.620000    
 AG WELL      3   ROW     7   COL     4   RATE    0.620000    
 AG WELL      4   ROW     7   COL     5   RATE    0.620000    
 AG WELL      5   ROW     8   COL     4   RATE    0.620000    
 AG WELL      6   ROW     8   COL     5   RATE    0.620000    
 
1
  VOLUMETRIC BUDGET FOR AGRICULTURAL FIELDS AT  END OF TIME STEP    7, STRESS PERIOD   5
  ------------------------------------------------------------------------------

     CUMULATIVE VOLUMES      L**3       RATES FOR THIS TIME STEP      L**3/T
     ------------------                 ------------------------

           IN:                                      IN:
           ---                                      ---
               AG WELLS  =     2282943.5000                 AG WELLS  =           3.7200
      DIVERSION SEGMENTS =           0.0000        DIVERSION SEGMENTS =           0.0000
       IRRIGATION PONDS  =           0.0000         IRRIGATION PONDS  =           0.0000
           GW IRRIGATION =           0.0000             GW IRRIGATION =           0.0000
           SW IRRIGATION =           0.0000             SW IRRIGATION =           0.0000
        SYSTEM LOSSES GW =           0.0000          SYSTEM LOSSES GW =           0.0000
        SYSTEM LOSSES SW =           0.0000          SYSTEM LOSSES SW =           0.0000

                TOTAL IN =     2282943.5000                  TOTAL IN =           3.7200

          OUT:                                     OUT:
          ----                                     ----
               AG WELLS  =           0.0000                 AG WELLS  =           0.0000
      DIVERSION SEGMENTS =           0.0000        DIVERSION SEGMENTS =           0.0000
       IRRIGATION PONDS  =           0.0000         IRRIGATION PONDS  =           0.0000
           GW IRRIGATION =     2282943.5000             GW IRRIGATION =           3.7200
           SW IRRIGATION =           0.0000             SW IRRIGATION =           0.0000
        SYSTEM LOSSES GW =           0.0000          SYSTEM LOSSES GW =           0.0000
        SYSTEM LOSSES SW =           0.0000          SYSTEM LOSSES SW =           0.0000

               TOTAL OUT =     2282943.5000                 TOTAL OUT =           3.7200

                IN - OUT =           0.0000                  IN - OUT =           0.0000

     PERCENT DISCREPANCY =           0.00         PERCENT DISCREPANCY =           0.00



1
  VOLUMETRIC BUDGET FOR ENTIRE MODEL AT END OF TIME STEP    7, STRESS PERIOD   5
  ------------------------------------------------------------------------------

     CUMULATIVE VOLUMES      L**3       RATES FOR THIS TIME STEP      L**3/T
     ------------------                 ------------------------

           IN:                                      IN:
           ---                                      ---
             STORAGE     =     8338535.0000               STORAGE     =           5.9767
       CONSTANT HEAD     =           0.0000         CONSTANT HEAD     =           0.0000
     HEAD DEP BOUNDS     =     2451806.7500       HEAD DEP BOUNDS     =           0.2855
      STREAM LEAKAGE     =   106098056.0000        STREAM LEAKAGE     =          11.6112
        UZF RECHARGE     =       73223.9531          UZF RECHARGE     =           0.0000
               GW ET     =           0.0000                 GW ET     =           0.0000
     SURFACE LEAKAGE     =           0.0000       SURFACE LEAKAGE     =           0.0000
           AG WELLS      =           0.0000             AG WELLS      =           0.0000

                TOTAL IN =   116961624.0000                  TOTAL IN =          17.8734

          OUT:                                     OUT:
          ----                                     ----
             STORAGE     =    23196310.0000               STORAGE     =           1.2205
       CONSTANT HEAD     =           0.0000         CONSTANT HEAD     =           0.0000
     HEAD DEP BOUNDS     =     2509607.0000       HEAD DEP BOUNDS     =           0.2957
      STREAM LEAKAGE     =    88825280.0000        STREAM LEAKAGE     =          12.4811
        UZF RECHARGE     =           0.0000          UZF RECHARGE     =           0.0000
               GW ET     =      152559.1406                 GW ET     =           0.1559
     SURFACE LEAKAGE     =           0.0000       SURFACE LEAKAGE     =           0.0000
           AG WELLS      =     2282943.5000             AG WELLS      =           3.7200

               TOTAL OUT =   116966704.0000                 TOTAL OUT =          17.8732

                IN - OUT =       -5080.0000                  IN - OUT =       1.4496E-04

     PERCENT DISCREPANCY =          -0.00         PERCENT DISCREPANCY =           0.00






         TIME SUMMARY AT END OF TIME STEP    7 IN STRESS PERIOD    5
                    SECONDS     MINUTES      HOURS       DAYS        YEARS
                    -----------------------------------------------------------
   TIME STEP LENGTH  87667.      1461.1      24.352      1.0147     2.77799E-03
 STRESS PERIOD TIME 6.13667E+05  10228.      170.46      7.1026     1.94459E-02
         TOTAL TIME 8.59006E+06 1.43168E+05  2386.1      99.422     0.27220    
1
 
 SOLVING FOR HEAD 
                                                   Max.-Head-Change                         Max.-Flux-Residual
  Residual-Control   Outer-Iter.   Inner-Iter.     Column Row Layer    Maximum-Head-Change  Column Row Layer    Maximum-Flux-Residual          L2-NORM 
          0                 1           2             2   13     1      -0.9111265394E-02       2   13    1        -0.5129297432E+00      0.9966915080E+00
          0                 2           2             4    7     1      -0.1161979735E-01       5    6    1        -0.6325773757E+00      0.1542943100E+01
          0                 3           2             4    7     1       0.7908949427E-03       5    6    1         0.4425577988E-01      0.1079355508E+00
          0                 4           1             4    7     1      -0.3147045307E-04       5    6    1        -0.1809653862E-02      0.4413302009E-02

    ------------------------------------------------
       NWT REQUIRED            4 OUTER ITERATIONS 
       AND A TOTAL OF          7 INNER ITERATIONS.
    ------------------------------------------------

 OUTPUT CONTROL FOR STRESS PERIOD    5   TIME STEP    8
    PRINT BUDGET
    SAVE BUDGET
 UBDSV1 SAVING "         STORAGE" ON UNIT 102 AT TIME STEP 8, STRESS PERIOD 5
 UBDSV2 SAVING "   CONSTANT HEAD" ON UNIT 102 AT TIME STEP 8, STRESS PERIOD 5
 UBDSV1 SAVING "FLOW RIGHT FACE " ON UNIT 102 AT TIME STEP 8, STRESS PERIOD 5
 UBDSV1 SAVING "FLOW FRONT FACE " ON UNIT 102 AT TIME STEP 8, STRESS PERIOD 5

  HEAD DEP BOUNDS   PERIOD    5   STEP     8
 BOUNDARY      1   LAYER   1   ROW    13   COL     1   RATE   -0.295504    
 BOUNDARY      2   LAYER   1   ROW    14   COL     9   RATE    0.285475    



 STREAM LISTING     PERIOD      5   STEP        8

 LAYER ROW COL. STREAM  RCH.  FLOW INTO     FLOW TO   FLOW OUT OF   OVRLND.     DIRECT     STREAM       STREAM     STREAM     STREAM   STREAMBED  STREAMBED
                SEG.NO.  NO.  STRM. RCH.    AQUIFER    STRM. RCH.    RUNOFF     PRECIP       ET          HEAD       DEPTH      WIDTH   CONDCTNC.   GRADIENT

   1    1    1     1     1    2.8000E+01  2.5860E-01   2.7742E+01  0.000E+00  0.000E+00  0.000E+00  1.09427E+03  1.221E+00  1.361E+01  6.126E-02  1.407E+00
   1    2    2     1     2    2.7742E+01  4.0002E-01   2.7341E+01  0.000E+00  0.000E+00  0.000E+00  1.08928E+03  1.217E+00  1.355E+01  9.487E-02  1.406E+00
   1    3    3     1     3    2.7341E+01  3.4070E-01   2.7001E+01  0.000E+00  0.000E+00  0.000E+00  1.08363E+03  1.212E+00  1.348E+01  8.090E-02  1.404E+00
   1    3    4     1     4    2.7001E+01  3.1335E-01   2.6687E+01  0.000E+00  0.000E+00  0.000E+00  1.07861E+03  1.207E+00  1.342E+01  7.448E-02  1.402E+00
   1    4    5     2     1    2.4687E+01  3.2711E-01   2.4360E+01  0.000E+00  0.000E+00  0.000E+00  1.07313E+03  1.194E+00  1.200E+01  7.800E-02  1.398E+00
   1    5    6     2     2    2.4360E+01  2.5111E-01   2.4109E+01  0.000E+00  0.000E+00  0.000E+00  1.06769E+03  1.185E+00  1.200E+01  6.000E-02  1.395E+00
   1    6    6     2     3    2.4109E+01  2.5067E-01   2.3859E+01  0.000E+00  0.000E+00  0.000E+00  1.06297E+03  1.178E+00  1.200E+01  6.000E-02  1.393E+00
   1    7    6     2     4    2.3859E+01  2.5023E-01   2.3608E+01  0.000E+00  0.000E+00  0.000E+00  1.05825E+03  1.170E+00  1.200E+01  6.000E-02  1.390E+00
   1    8    6     2     5    2.3608E+01  2.4978E-01   2.3359E+01  0.000E+00  0.000E+00  0.000E+00  1.05352E+03  1.163E+00  1.200E+01  6.000E-02  1.388E+00
   1    3    5     3     1    2.0000E+00  2.8252E-01   1.7175E+00  0.000E+00  0.000E+00  0.000E+00  1.07555E+03  1.909E+00  9.636E+00  7.227E-02  1.955E+00
   1    3    6     3     2    1.7175E+00  2.4905E-01   1.4684E+00  0.000E+00  0.000E+00  0.000E+00  1.07264E+03  1.727E+00  8.909E+00  6.682E-02  1.864E+00
   1    3    7     3     3    1.4684E+00  1.9718E-01   1.2712E+00  0.000E+00  0.000E+00  0.000E+00  1.06987E+03  1.555E+00  8.218E+00  5.547E-02  1.777E+00
   1    4    8     3     4    1.2712E+00  2.2567E-01   1.0456E+00  0.000E+00  0.000E+00  0.000E+00  1.06682E+03  1.364E+00  7.455E+00  6.709E-02  1.682E+00
   1    5    8     3     5    1.0456E+00  1.5790E-01   8.8768E-01  0.000E+00  0.000E+00  0.000E+00  1.06362E+03  1.164E+00  6.655E+00  4.991E-02  1.582E+00
   1    6    8     3     6    8.8768E-01  5.5980E-02   8.3170E-01  0.000E+00  0.000E+00  0.000E+00  1.06158E+03  1.036E+00  6.145E+00  1.844E-02  1.518E+00
   1    5   10     4     1    1.0000E+01  9.0919E-02   9.9091E+00  0.000E+00  0.000E+00  0.000E+00  1.07836E+03  6.368E-01  1.000E+01  2.500E-02  1.212E+00
   1    5    9     4     2    9.9091E+00  1.8158E-01   9.7275E+00  0.000E+00  0.000E+00  0.000E+00  1.07154E+03  6.315E-01  1.000E+01  5.000E-02  1.211E+00
   1    6    8     4     3    9.7275E+00  1.2689E-01   9.6006E+00  0.000E+00  0.000E+00  0.000E+00  1.06381E+03  6.256E-01  1.000E+01  3.500E-02  1.209E+00
   1    6    8     5     1    1.0432E+01  2.2686E-01   1.0205E+01  0.000E+00  0.000E+00  0.000E+00  1.05868E+03  6.790E-01  1.542E+01  6.166E-02  1.226E+00
   1    7    7     5     2    1.0205E+01  2.7894E-01   9.9265E+00  0.000E+00  0.000E+00  0.000E+00  1.05417E+03  6.732E-01  1.519E+01  7.594E-02  1.224E+00
   1    8    7     5     3    9.9265E+00  1.9221E-01   9.7343E+00  0.000E+00  0.000E+00  0.000E+00  1.04992E+03  6.676E-01  1.497E+01  5.241E-02  1.223E+00
   1    8    6     5     4    9.7343E+00  1.3577E-01   9.5985E+00  0.000E+00  0.000E+00  0.000E+00  1.04691E+03  6.637E-01  1.482E+01  3.706E-02  1.221E+00
   1    9    6     6     1    3.2957E+01  2.6627E-01   3.2691E+01  0.000E+00  0.000E+00  0.000E+00  1.04417E+03  1.438E+00  1.200E+01  6.000E-02  1.479E+00
   1   10    7     6     2    3.2691E+01  2.6585E-01   3.2425E+01  0.000E+00  0.000E+00  0.000E+00  1.03961E+03  1.431E+00  1.200E+01  6.000E-02  1.477E+00
   1   11    7     6     3    3.2425E+01  2.6542E-01   3.2160E+01  0.000E+00  0.000E+00  0.000E+00  1.03506E+03  1.424E+00  1.200E+01  6.000E-02  1.475E+00
   1   12    7     6     4    3.2160E+01  2.6500E-01   3.1895E+01  0.000E+00  0.000E+00  0.000E+00  1.03051E+03  1.417E+00  1.200E+01  6.000E-02  1.472E+00
   1   13    7     6     5    3.1895E+01  3.4439E-03   3.1891E+01  0.000E+00  0.000E+00  0.000E+00  1.02732E+03  1.413E+00  1.200E+01  2.400E-02  4.783E-02
   1   14    9     7     1    1.5000E+02  1.3317E+00   1.4867E+02  0.000E+00  0.000E+00  0.000E+00  1.03987E+03  2.288E+00  5.529E+01  5.593E-01  7.936E-01
   1   13    8     7     2    1.4867E+02  1.8136E+00   1.4685E+02  0.000E+00  0.000E+00  0.000E+00  1.03478E+03  2.279E+00  5.526E+01  6.148E-01  9.833E-01
   1   13    7     7     3    1.4685E+02  1.4025E+00   1.4545E+02  0.000E+00  0.000E+00  0.000E+00  1.02969E+03  2.271E+00  5.522E+01  5.585E-01  8.371E-01
   1   13    6     8     1    1.7734E+02  8.5998E-01   1.7648E+02  0.000E+00  0.000E+00  0.000E+00  1.02487E+03  2.997E+00  4.345E+01  4.428E-01  6.474E-01
   1   13    5     8     2    1.7648E+02  9.5257E-02   1.7639E+02  0.000E+00  0.000E+00  0.000E+00  1.01862E+03  2.994E+00  4.341E+01  4.423E-01  7.178E-02
   1   13    4     8     3    1.7639E+02 -2.9725E+00   1.7936E+02  0.000E+00  0.000E+00  0.000E+00  1.01238E+03  3.003E+00  4.354E+01  4.437E+00 -2.233E-01
   1   13    3     8     4    1.7936E+02 -4.0807E+00   1.8344E+02  0.000E+00  0.000E+00  0.000E+00  1.00615E+03  3.025E+00  4.386E+01  4.470E+00 -3.043E-01
   1   13    2     8     5    1.8344E+02 -3.0369E+00   1.8648E+02  0.000E+00  0.000E+00  0.000E+00  9.99922E+02  3.047E+00  4.418E+01  4.502E+00 -2.248E-01
   1   13    1     8     6    1.8648E+02 -2.2759E+00   1.8875E+02  0.000E+00  0.000E+00  0.000E+00  9.94938E+02  3.063E+00  4.442E+01  2.716E+00 -2.793E-01



 UBDSV3 SAVING "           GW ET" ON UNIT  61 AT TIME STEP 8, STRESS PERIOD 5
 UBDSV3 SAVING "    UZF RECHARGE" ON UNIT  61 AT TIME STEP 8, STRESS PERIOD 5
 UBDSV3 SAVING " SURFACE LEAKAGE" ON UNIT  61 AT TIME STEP 8, STRESS PERIOD 5
 UBDSV3 SAVING "       HORT+DUNN" ON UNIT  61 AT TIME STEP 8, STRESS PERIOD 5
 UBDSV3 SAVING "  STORAGE CHANGE" ON UNIT  61 AT TIME STEP 8, STRESS PERIOD 5


UNSATURATED ZONE PACKAGE VOLUMETRIC BUDGET FOR  TIME STEP     8 STRESS PERIOD    5
  ------------------------------------------------------------------------------



     CUMULATIVE VOLUMES      L**3       RATES FOR THIS TIME STEP      L**3/T
     ------------------                 ------------------------

           IN:                                      IN:
           ---                                      ---
        INFILTRATION =     9963441.9368          INFILTRATION =           4.5675

          OUT:                                     OUT:
          ----                                     ----
              UZF ET =     9889529.5674                UZF ET =           4.5675
        UZF RECHARGE =       73224.0000          UZF RECHARGE =       0.0000E+00

            IN - OUT =         688.3695              IN - OUT =       0.0000E+00

          STORAGE:                                 STORAGE:
          --------                                 --------
      STORAGE CHANGE =         688.4001        STORAGE CHANGE =      -2.8667E-12

 PERCENT DISCREPANCY IS DIFFERENCE BETWEEN IN-OUT MINUS CHANGE IN STORAGE
 DIVIDED BY THE AVERAGE OF IN AND OUT TIMES 100

 PERCENT DISCREPANCY =           0.00     PERCENT DISCREPANCY =           0.00






 

            AG WELLS      PERIOD    5   STEP   8
 AG WELL      1   LAYER   1   ROW     6   COL     4   RATE   -0.620000    
 AG WELL      2   LAYER   1   ROW     6   COL     5   RATE   -0.620000    
 AG WELL      3   LAYER   1   ROW     7   COL     4   RATE   -0.620000    
 AG WELL      4   LAYER   1   ROW     7   COL     5   RATE   -0.620000    
 AG WELL      5   LAYER   1   ROW     8   COL     4   RATE   -0.620000    
 AG WELL      6   LAYER   1   ROW     8   COL     5   RATE   -0.620000    
 
 

        GW IRRIGATION     PERIOD    5   STEP   8
 AG WELL      1   ROW     6   COL     4   RATE    0.620000    
 AG WELL      2   ROW     6   COL     5   RATE    0.620000    
 AG WELL      3   ROW     7   COL     4   RATE    0.620000    
 AG WELL      4   ROW     7   COL     5   RATE    0.620000    
 AG WELL      5   ROW     8   COL     4   RATE    0.620000    
 AG WELL      6   ROW     8   COL     5   RATE    0.620000    
 
1
  VOLUMETRIC BUDGET FOR AGRICULTURAL FIELDS AT  END OF TIME STEP    8, STRESS PERIOD   5
  ------------------------------------------------------------------------------

     CUMULATIVE VOLUMES      L**3       RATES FOR THIS TIME STEP      L**3/T
     ------------------                 ------------------------

           IN:                                      IN:
           ---                                      ---
               AG WELLS  =     2609063.5000                 AG WELLS  =           3.7200
      DIVERSION SEGMENTS =           0.0000        DIVERSION SEGMENTS =           0.0000
       IRRIGATION PONDS  =           0.0000         IRRIGATION PONDS  =           0.0000
           GW IRRIGATION =           0.0000             GW IRRIGATION =           0.0000
           SW IRRIGATION =           0.0000             SW IRRIGATION =           0.0000
        SYSTEM LOSSES GW =           0.0000          SYSTEM LOSSES GW =           0.0000
        SYSTEM LOSSES SW =           0.0000          SYSTEM LOSSES SW =           0.0000

                TOTAL IN =     2609063.5000                  TOTAL IN =           3.7200

          OUT:                                     OUT:
          ----                                     ----
               AG WELLS  =           0.0000                 AG WELLS  =           0.0000
      DIVERSION SEGMENTS =           0.0000        DIVERSION SEGMENTS =           0.0000
       IRRIGATION PONDS  =           0.0000         IRRIGATION PONDS  =           0.0000
           GW IRRIGATION =     2609063.5000             GW IRRIGATION =           3.7200
           SW IRRIGATION =           0.0000             SW IRRIGATION =           0.0000
        SYSTEM LOSSES GW =           0.0000          SYSTEM LOSSES GW =           0.0000
        SYSTEM LOSSES SW =           0.0000          SYSTEM LOSSES SW =           0.0000

               TOTAL OUT =     2609063.5000                 TOTAL OUT =           3.7200

                IN - OUT =           0.0000                  IN - OUT =           0.0000

     PERCENT DISCREPANCY =           0.00         PERCENT DISCREPANCY =           0.00



1
  VOLUMETRIC BUDGET FOR ENTIRE MODEL AT END OF TIME STEP    8, STRESS PERIOD   5
  ------------------------------------------------------------------------------

     CUMULATIVE VOLUMES      L**3       RATES FOR THIS TIME STEP      L**3/T
     ------------------                 ------------------------

           IN:                                      IN:
           ---                                      ---
             STORAGE     =     8847915.0000               STORAGE     =           5.8104
       CONSTANT HEAD     =           0.0000         CONSTANT HEAD     =           0.0000
     HEAD DEP BOUNDS     =     2476833.5000       HEAD DEP BOUNDS     =           0.2855
      STREAM LEAKAGE     =   107116040.0000        STREAM LEAKAGE     =          11.6120
        UZF RECHARGE     =       73223.9531          UZF RECHARGE     =           0.0000
               GW ET     =           0.0000                 GW ET     =           0.0000
     SURFACE LEAKAGE     =           0.0000       SURFACE LEAKAGE     =           0.0000
           AG WELLS      =           0.0000             AG WELLS      =           0.0000

                TOTAL IN =   118514008.0000                  TOTAL IN =          17.7079

          OUT:                                     OUT:
          ----                                     ----
             STORAGE     =    23300552.0000               STORAGE     =           1.1891
       CONSTANT HEAD     =           0.0000         CONSTANT HEAD     =           0.0000
     HEAD DEP BOUNDS     =     2535512.7500       HEAD DEP BOUNDS     =           0.2955
      STREAM LEAKAGE     =    89909368.0000        STREAM LEAKAGE     =          12.3660
        UZF RECHARGE     =           0.0000          UZF RECHARGE     =           0.0000
               GW ET     =      164585.5312                 GW ET     =           0.1372
     SURFACE LEAKAGE     =           0.0000       SURFACE LEAKAGE     =           0.0000
           AG WELLS      =     2609063.5000             AG WELLS      =           3.7200

               TOTAL OUT =   118519080.0000                 TOTAL OUT =          17.7078

                IN - OUT =       -5072.0000                  IN - OUT =       1.4496E-04

     PERCENT DISCREPANCY =          -0.00         PERCENT DISCREPANCY =           0.00






         TIME SUMMARY AT END OF TIME STEP    8 IN STRESS PERIOD    5
                    SECONDS     MINUTES      HOURS       DAYS        YEARS
                    -----------------------------------------------------------
   TIME STEP LENGTH  87667.      1461.1      24.352      1.0147     2.77799E-03
 STRESS PERIOD TIME 7.01333E+05  11689.      194.81      8.1173     2.22239E-02
         TOTAL TIME 8.67773E+06 1.44629E+05  2410.5      100.44     0.27498    
1
 
 SOLVING FOR HEAD 
                                                   Max.-Head-Change                         Max.-Flux-Residual
  Residual-Control   Outer-Iter.   Inner-Iter.     Column Row Layer    Maximum-Head-Change  Column Row Layer    Maximum-Flux-Residual          L2-NORM 
          0                 1           2             2   13     1      -0.8429135965E-02       2   13    1        -0.4745481508E+00      0.9313401380E+00
          0                 2           2             4    7     1      -0.1162857631E-01       5    6    1        -0.6337277370E+00      0.1544708402E+01
          0                 3           2             4    7     1       0.7914927647E-03       5    6    1         0.4433675226E-01      0.1080618116E+00
          0                 4           1             4    7     1      -0.3149424142E-04       5    6    1        -0.1813009008E-02      0.4418605090E-02

    ------------------------------------------------
       NWT REQUIRED            4 OUTER ITERATIONS 
       AND A TOTAL OF          7 INNER ITERATIONS.
    ------------------------------------------------

 OUTPUT CONTROL FOR STRESS PERIOD    5   TIME STEP    9
    PRINT BUDGET
    SAVE BUDGET
 UBDSV1 SAVING "         STORAGE" ON UNIT 102 AT TIME STEP 9, STRESS PERIOD 5
 UBDSV2 SAVING "   CONSTANT HEAD" ON UNIT 102 AT TIME STEP 9, STRESS PERIOD 5
 UBDSV1 SAVING "FLOW RIGHT FACE " ON UNIT 102 AT TIME STEP 9, STRESS PERIOD 5
 UBDSV1 SAVING "FLOW FRONT FACE " ON UNIT 102 AT TIME STEP 9, STRESS PERIOD 5

  HEAD DEP BOUNDS   PERIOD    5   STEP     9
 BOUNDARY      1   LAYER   1   ROW    13   COL     1   RATE   -0.295303    
 BOUNDARY      2   LAYER   1   ROW    14   COL     9   RATE    0.285476    



 STREAM LISTING     PERIOD      5   STEP        9

 LAYER ROW COL. STREAM  RCH.  FLOW INTO     FLOW TO   FLOW OUT OF   OVRLND.     DIRECT     STREAM       STREAM     STREAM     STREAM   STREAMBED  STREAMBED
                SEG.NO.  NO.  STRM. RCH.    AQUIFER    STRM. RCH.    RUNOFF     PRECIP       ET          HEAD       DEPTH      WIDTH   CONDCTNC.   GRADIENT

   1    1    1     1     1    2.8000E+01  2.5860E-01   2.7742E+01  0.000E+00  0.000E+00  0.000E+00  1.09427E+03  1.221E+00  1.361E+01  6.126E-02  1.407E+00
   1    2    2     1     2    2.7742E+01  4.0002E-01   2.7341E+01  0.000E+00  0.000E+00  0.000E+00  1.08928E+03  1.217E+00  1.355E+01  9.487E-02  1.406E+00
   1    3    3     1     3    2.7341E+01  3.4070E-01   2.7001E+01  0.000E+00  0.000E+00  0.000E+00  1.08363E+03  1.212E+00  1.348E+01  8.090E-02  1.404E+00
   1    3    4     1     4    2.7001E+01  3.1335E-01   2.6687E+01  0.000E+00  0.000E+00  0.000E+00  1.07861E+03  1.207E+00  1.342E+01  7.448E-02  1.402E+00
   1    4    5     2     1    2.4687E+01  3.2711E-01   2.4360E+01  0.000E+00  0.000E+00  0.000E+00  1.07313E+03  1.194E+00  1.200E+01  7.800E-02  1.398E+00
   1    5    6     2     2    2.4360E+01  2.5111E-01   2.4109E+01  0.000E+00  0.000E+00  0.000E+00  1.06769E+03  1.185E+00  1.200E+01  6.000E-02  1.395E+00
   1    6    6     2     3    2.4109E+01  2.5067E-01   2.3859E+01  0.000E+00  0.000E+00  0.000E+00  1.06297E+03  1.178E+00  1.200E+01  6.000E-02  1.393E+00
   1    7    6     2     4    2.3859E+01  2.5023E-01   2.3608E+01  0.000E+00  0.000E+00  0.000E+00  1.05825E+03  1.170E+00  1.200E+01  6.000E-02  1.390E+00
   1    8    6     2     5    2.3608E+01  2.4978E-01   2.3359E+01  0.000E+00  0.000E+00  0.000E+00  1.05352E+03  1.163E+00  1.200E+01  6.000E-02  1.388E+00
   1    3    5     3     1    2.0000E+00  2.8252E-01   1.7175E+00  0.000E+00  0.000E+00  0.000E+00  1.07555E+03  1.909E+00  9.636E+00  7.227E-02  1.955E+00
   1    3    6     3     2    1.7175E+00  2.4905E-01   1.4684E+00  0.000E+00  0.000E+00  0.000E+00  1.07264E+03  1.727E+00  8.909E+00  6.682E-02  1.864E+00
   1    3    7     3     3    1.4684E+00  1.9718E-01   1.2712E+00  0.000E+00  0.000E+00  0.000E+00  1.06987E+03  1.555E+00  8.218E+00  5.547E-02  1.777E+00
   1    4    8     3     4    1.2712E+00  2.2567E-01   1.0456E+00  0.000E+00  0.000E+00  0.000E+00  1.06682E+03  1.364E+00  7.455E+00  6.709E-02  1.682E+00
   1    5    8     3     5    1.0456E+00  1.5790E-01   8.8768E-01  0.000E+00  0.000E+00  0.000E+00  1.06362E+03  1.164E+00  6.655E+00  4.991E-02  1.582E+00
   1    6    8     3     6    8.8768E-01  5.5980E-02   8.3170E-01  0.000E+00  0.000E+00  0.000E+00  1.06158E+03  1.036E+00  6.145E+00  1.844E-02  1.518E+00
   1    5   10     4     1    1.0000E+01  9.0919E-02   9.9091E+00  0.000E+00  0.000E+00  0.000E+00  1.07836E+03  6.368E-01  1.000E+01  2.500E-02  1.212E+00
   1    5    9     4     2    9.9091E+00  1.8158E-01   9.7275E+00  0.000E+00  0.000E+00  0.000E+00  1.07154E+03  6.315E-01  1.000E+01  5.000E-02  1.211E+00
   1    6    8     4     3    9.7275E+00  1.2689E-01   9.6006E+00  0.000E+00  0.000E+00  0.000E+00  1.06381E+03  6.256E-01  1.000E+01  3.500E-02  1.209E+00
   1    6    8     5     1    1.0432E+01  2.2686E-01   1.0205E+01  0.000E+00  0.000E+00  0.000E+00  1.05868E+03  6.790E-01  1.542E+01  6.166E-02  1.226E+00
   1    7    7     5     2    1.0205E+01  2.7894E-01   9.9265E+00  0.000E+00  0.000E+00  0.000E+00  1.05417E+03  6.732E-01  1.519E+01  7.594E-02  1.224E+00
   1    8    7     5     3    9.9265E+00  1.9221E-01   9.7343E+00  0.000E+00  0.000E+00  0.000E+00  1.04992E+03  6.676E-01  1.497E+01  5.241E-02  1.223E+00
   1    8    6     5     4    9.7343E+00  1.3577E-01   9.5985E+00  0.000E+00  0.000E+00  0.000E+00  1.04691E+03  6.637E-01  1.482E+01  3.706E-02  1.221E+00
   1    9    6     6     1    3.2957E+01  2.6627E-01   3.2691E+01  0.000E+00  0.000E+00  0.000E+00  1.04417E+03  1.438E+00  1.200E+01  6.000E-02  1.479E+00
   1   10    7     6     2    3.2691E+01  2.6585E-01   3.2425E+01  0.000E+00  0.000E+00  0.000E+00  1.03961E+03  1.431E+00  1.200E+01  6.000E-02  1.477E+00
   1   11    7     6     3    3.2425E+01  2.6542E-01   3.2160E+01  0.000E+00  0.000E+00  0.000E+00  1.03506E+03  1.424E+00  1.200E+01  6.000E-02  1.475E+00
   1   12    7     6     4    3.2160E+01  2.6500E-01   3.1895E+01  0.000E+00  0.000E+00  0.000E+00  1.03051E+03  1.417E+00  1.200E+01  6.000E-02  1.472E+00
   1   13    7     6     5    3.1895E+01  3.4365E-03   3.1891E+01  0.000E+00  0.000E+00  0.000E+00  1.02732E+03  1.413E+00  1.200E+01  2.400E-02  4.773E-02
   1   14    9     7     1    1.5000E+02  1.3317E+00   1.4867E+02  0.000E+00  0.000E+00  0.000E+00  1.03987E+03  2.288E+00  5.529E+01  5.593E-01  7.936E-01
   1   13    8     7     2    1.4867E+02  1.8134E+00   1.4685E+02  0.000E+00  0.000E+00  0.000E+00  1.03478E+03  2.279E+00  5.526E+01  6.148E-01  9.832E-01
   1   13    7     7     3    1.4685E+02  1.4024E+00   1.4545E+02  0.000E+00  0.000E+00  0.000E+00  1.02969E+03  2.271E+00  5.522E+01  5.585E-01  8.370E-01
   1   13    6     8     1    1.7734E+02  8.6053E-01   1.7648E+02  0.000E+00  0.000E+00  0.000E+00  1.02487E+03  2.997E+00  4.345E+01  4.428E-01  6.478E-01
   1   13    5     8     2    1.7648E+02  9.5860E-02   1.7639E+02  0.000E+00  0.000E+00  0.000E+00  1.01862E+03  2.994E+00  4.341E+01  4.423E-01  7.224E-02
   1   13    4     8     3    1.7639E+02 -2.9434E+00   1.7933E+02  0.000E+00  0.000E+00  0.000E+00  1.01238E+03  3.003E+00  4.354E+01  4.437E+00 -2.211E-01
   1   13    3     8     4    1.7933E+02 -4.0508E+00   1.8338E+02  0.000E+00  0.000E+00  0.000E+00  1.00615E+03  3.025E+00  4.386E+01  4.469E+00 -3.021E-01
   1   13    2     8     5    1.8338E+02 -3.0039E+00   1.8639E+02  0.000E+00  0.000E+00  0.000E+00  9.99922E+02  3.047E+00  4.418E+01  4.502E+00 -2.224E-01
   1   13    1     8     6    1.8639E+02 -2.2628E+00   1.8865E+02  0.000E+00  0.000E+00  0.000E+00  9.94938E+02  3.063E+00  4.441E+01  2.715E+00 -2.778E-01



 UBDSV3 SAVING "           GW ET" ON UNIT  61 AT TIME STEP 9, STRESS PERIOD 5
 UBDSV3 SAVING "    UZF RECHARGE" ON UNIT  61 AT TIME STEP 9, STRESS PERIOD 5
 UBDSV3 SAVING " SURFACE LEAKAGE" ON UNIT  61 AT TIME STEP 9, STRESS PERIOD 5
 UBDSV3 SAVING "       HORT+DUNN" ON UNIT  61 AT TIME STEP 9, STRESS PERIOD 5
 UBDSV3 SAVING "  STORAGE CHANGE" ON UNIT  61 AT TIME STEP 9, STRESS PERIOD 5


UNSATURATED ZONE PACKAGE VOLUMETRIC BUDGET FOR  TIME STEP     9 STRESS PERIOD    5
  ------------------------------------------------------------------------------



     CUMULATIVE VOLUMES      L**3       RATES FOR THIS TIME STEP      L**3/T
     ------------------                 ------------------------

           IN:                                      IN:
           ---                                      ---
        INFILTRATION =    10363859.4171          INFILTRATION =           4.5675

          OUT:                                     OUT:
          ----                                     ----
              UZF ET =    10289947.0476                UZF ET =           4.5675
        UZF RECHARGE =       73224.0000          UZF RECHARGE =       0.0000E+00

            IN - OUT =         688.3695              IN - OUT =       0.0000E+00

          STORAGE:                                 STORAGE:
          --------                                 --------
      STORAGE CHANGE =         688.4001        STORAGE CHANGE =      -2.8667E-12

 PERCENT DISCREPANCY IS DIFFERENCE BETWEEN IN-OUT MINUS CHANGE IN STORAGE
 DIVIDED BY THE AVERAGE OF IN AND OUT TIMES 100

 PERCENT DISCREPANCY =           0.00     PERCENT DISCREPANCY =           0.00






 

            AG WELLS      PERIOD    5   STEP   9
 AG WELL      1   LAYER   1   ROW     6   COL     4   RATE   -0.620000    
 AG WELL      2   LAYER   1   ROW     6   COL     5   RATE   -0.620000    
 AG WELL      3   LAYER   1   ROW     7   COL     4   RATE   -0.620000    
 AG WELL      4   LAYER   1   ROW     7   COL     5   RATE   -0.620000    
 AG WELL      5   LAYER   1   ROW     8   COL     4   RATE   -0.620000    
 AG WELL      6   LAYER   1   ROW     8   COL     5   RATE   -0.620000    
 
 

        GW IRRIGATION     PERIOD    5   STEP   9
 AG WELL      1   ROW     6   COL     4   RATE    0.620000    
 AG WELL      2   ROW     6   COL     5   RATE    0.620000    
 AG WELL      3   ROW     7   COL     4   RATE    0.620000    
 AG WELL      4   ROW     7   COL     5   RATE    0.620000    
 AG WELL      5   ROW     8   COL     4   RATE    0.620000    
 AG WELL      6   ROW     8   COL     5   RATE    0.620000    
 
1
  VOLUMETRIC BUDGET FOR AGRICULTURAL FIELDS AT  END OF TIME STEP    9, STRESS PERIOD   5
  ------------------------------------------------------------------------------

     CUMULATIVE VOLUMES      L**3       RATES FOR THIS TIME STEP      L**3/T
     ------------------                 ------------------------

           IN:                                      IN:
           ---                                      ---
               AG WELLS  =     2935183.5000                 AG WELLS  =           3.7200
      DIVERSION SEGMENTS =           0.0000        DIVERSION SEGMENTS =           0.0000
       IRRIGATION PONDS  =           0.0000         IRRIGATION PONDS  =           0.0000
           GW IRRIGATION =           0.0000             GW IRRIGATION =           0.0000
           SW IRRIGATION =           0.0000             SW IRRIGATION =           0.0000
        SYSTEM LOSSES GW =           0.0000          SYSTEM LOSSES GW =           0.0000
        SYSTEM LOSSES SW =           0.0000          SYSTEM LOSSES SW =           0.0000

                TOTAL IN =     2935183.5000                  TOTAL IN =           3.7200

          OUT:                                     OUT:
          ----                                     ----
               AG WELLS  =           0.0000                 AG WELLS  =           0.0000
      DIVERSION SEGMENTS =           0.0000        DIVERSION SEGMENTS =           0.0000
       IRRIGATION PONDS  =           0.0000         IRRIGATION PONDS  =           0.0000
           GW IRRIGATION =     2935183.5000             GW IRRIGATION =           3.7200
           SW IRRIGATION =           0.0000             SW IRRIGATION =           0.0000
        SYSTEM LOSSES GW =           0.0000          SYSTEM LOSSES GW =           0.0000
        SYSTEM LOSSES SW =           0.0000          SYSTEM LOSSES SW =           0.0000

               TOTAL OUT =     2935183.5000                 TOTAL OUT =           3.7200

                IN - OUT =           0.0000                  IN - OUT =           0.0000

     PERCENT DISCREPANCY =           0.00         PERCENT DISCREPANCY =           0.00



1
  VOLUMETRIC BUDGET FOR ENTIRE MODEL AT END OF TIME STEP    9, STRESS PERIOD   5
  ------------------------------------------------------------------------------

     CUMULATIVE VOLUMES      L**3       RATES FOR THIS TIME STEP      L**3/T
     ------------------                 ------------------------

           IN:                                      IN:
           ---                                      ---
             STORAGE     =     9343903.0000               STORAGE     =           5.6577
       CONSTANT HEAD     =           0.0000         CONSTANT HEAD     =           0.0000
     HEAD DEP BOUNDS     =     2501860.2500       HEAD DEP BOUNDS     =           0.2855
      STREAM LEAKAGE     =   108134104.0000        STREAM LEAKAGE     =          11.6129
        UZF RECHARGE     =       73223.9531          UZF RECHARGE     =           0.0000
               GW ET     =           0.0000                 GW ET     =           0.0000
     SURFACE LEAKAGE     =           0.0000       SURFACE LEAKAGE     =           0.0000
           AG WELLS      =           0.0000             AG WELLS      =           0.0000

                TOTAL IN =   120053088.0000                  TOTAL IN =          17.5560

          OUT:                                     OUT:
          ----                                     ----
             STORAGE     =    23402174.0000               STORAGE     =           1.1592
       CONSTANT HEAD     =           0.0000         CONSTANT HEAD     =           0.0000
     HEAD DEP BOUNDS     =     2561401.0000       HEAD DEP BOUNDS     =           0.2953
      STREAM LEAKAGE     =    90984240.0000        STREAM LEAKAGE     =          12.2609
        UZF RECHARGE     =           0.0000          UZF RECHARGE     =           0.0000
               GW ET     =      175142.7500                 GW ET     =           0.1204
     SURFACE LEAKAGE     =           0.0000       SURFACE LEAKAGE     =           0.0000
           AG WELLS      =     2935183.5000             AG WELLS      =           3.7200

               TOTAL OUT =   120058144.0000                 TOTAL OUT =          17.5558

                IN - OUT =       -5056.0000                  IN - OUT =       1.4496E-04

     PERCENT DISCREPANCY =          -0.00         PERCENT DISCREPANCY =           0.00






         TIME SUMMARY AT END OF TIME STEP    9 IN STRESS PERIOD    5
                    SECONDS     MINUTES      HOURS       DAYS        YEARS
                    -----------------------------------------------------------
   TIME STEP LENGTH  87667.      1461.1      24.352      1.0147     2.77799E-03
 STRESS PERIOD TIME 7.89000E+05  13150.      219.17      9.1319     2.50019E-02
         TOTAL TIME 8.76540E+06 1.46090E+05  2434.8      101.45     0.27776    
1
 
 SOLVING FOR HEAD 
                                                   Max.-Head-Change                         Max.-Flux-Residual
  Residual-Control   Outer-Iter.   Inner-Iter.     Column Row Layer    Maximum-Head-Change  Column Row Layer    Maximum-Flux-Residual          L2-NORM 
          0                 1           2             2   13     1      -0.7797220218E-02       2   13    1        -0.4389859674E+00      0.8757003153E+00
          0                 2           2             4    7     1      -0.1163757999E-01       5    6    1        -0.6348223966E+00      0.1546483277E+01
          0                 3           2             4    7     1       0.7921058881E-03       5    6    1         0.4441379402E-01      0.1081884250E+00
          0                 4           1             4    7     1      -0.3151863811E-04       5    6    1        -0.1816200311E-02      0.4423936393E-02

    ------------------------------------------------
       NWT REQUIRED            4 OUTER ITERATIONS 
       AND A TOTAL OF          7 INNER ITERATIONS.
    ------------------------------------------------

 OUTPUT CONTROL FOR STRESS PERIOD    5   TIME STEP   10
    PRINT BUDGET
    SAVE BUDGET
 UBDSV1 SAVING "         STORAGE" ON UNIT 102 AT TIME STEP 10, STRESS PERIOD 5
 UBDSV2 SAVING "   CONSTANT HEAD" ON UNIT 102 AT TIME STEP 10, STRESS PERIOD 5
 UBDSV1 SAVING "FLOW RIGHT FACE " ON UNIT 102 AT TIME STEP 10, STRESS PERIOD 5
 UBDSV1 SAVING "FLOW FRONT FACE " ON UNIT 102 AT TIME STEP 10, STRESS PERIOD 5

  HEAD DEP BOUNDS   PERIOD    5   STEP    10
 BOUNDARY      1   LAYER   1   ROW    13   COL     1   RATE   -0.295110    
 BOUNDARY      2   LAYER   1   ROW    14   COL     9   RATE    0.285477    



 STREAM LISTING     PERIOD      5   STEP       10

 LAYER ROW COL. STREAM  RCH.  FLOW INTO     FLOW TO   FLOW OUT OF   OVRLND.     DIRECT     STREAM       STREAM     STREAM     STREAM   STREAMBED  STREAMBED
                SEG.NO.  NO.  STRM. RCH.    AQUIFER    STRM. RCH.    RUNOFF     PRECIP       ET          HEAD       DEPTH      WIDTH   CONDCTNC.   GRADIENT

   1    1    1     1     1    2.8000E+01  2.5860E-01   2.7742E+01  0.000E+00  0.000E+00  0.000E+00  1.09427E+03  1.221E+00  1.361E+01  6.126E-02  1.407E+00
   1    2    2     1     2    2.7742E+01  4.0002E-01   2.7341E+01  0.000E+00  0.000E+00  0.000E+00  1.08928E+03  1.217E+00  1.355E+01  9.487E-02  1.406E+00
   1    3    3     1     3    2.7341E+01  3.4070E-01   2.7001E+01  0.000E+00  0.000E+00  0.000E+00  1.08363E+03  1.212E+00  1.348E+01  8.090E-02  1.404E+00
   1    3    4     1     4    2.7001E+01  3.1335E-01   2.6687E+01  0.000E+00  0.000E+00  0.000E+00  1.07861E+03  1.207E+00  1.342E+01  7.448E-02  1.402E+00
   1    4    5     2     1    2.4687E+01  3.2711E-01   2.4360E+01  0.000E+00  0.000E+00  0.000E+00  1.07313E+03  1.194E+00  1.200E+01  7.800E-02  1.398E+00
   1    5    6     2     2    2.4360E+01  2.5111E-01   2.4109E+01  0.000E+00  0.000E+00  0.000E+00  1.06769E+03  1.185E+00  1.200E+01  6.000E-02  1.395E+00
   1    6    6     2     3    2.4109E+01  2.5067E-01   2.3859E+01  0.000E+00  0.000E+00  0.000E+00  1.06297E+03  1.178E+00  1.200E+01  6.000E-02  1.393E+00
   1    7    6     2     4    2.3859E+01  2.5023E-01   2.3608E+01  0.000E+00  0.000E+00  0.000E+00  1.05825E+03  1.170E+00  1.200E+01  6.000E-02  1.390E+00
   1    8    6     2     5    2.3608E+01  2.4978E-01   2.3359E+01  0.000E+00  0.000E+00  0.000E+00  1.05352E+03  1.163E+00  1.200E+01  6.000E-02  1.388E+00
   1    3    5     3     1    2.0000E+00  2.8252E-01   1.7175E+00  0.000E+00  0.000E+00  0.000E+00  1.07555E+03  1.909E+00  9.636E+00  7.227E-02  1.955E+00
   1    3    6     3     2    1.7175E+00  2.4905E-01   1.4684E+00  0.000E+00  0.000E+00  0.000E+00  1.07264E+03  1.727E+00  8.909E+00  6.682E-02  1.864E+00
   1    3    7     3     3    1.4684E+00  1.9718E-01   1.2712E+00  0.000E+00  0.000E+00  0.000E+00  1.06987E+03  1.555E+00  8.218E+00  5.547E-02  1.777E+00
   1    4    8     3     4    1.2712E+00  2.2567E-01   1.0456E+00  0.000E+00  0.000E+00  0.000E+00  1.06682E+03  1.364E+00  7.455E+00  6.709E-02  1.682E+00
   1    5    8     3     5    1.0456E+00  1.5790E-01   8.8768E-01  0.000E+00  0.000E+00  0.000E+00  1.06362E+03  1.164E+00  6.655E+00  4.991E-02  1.582E+00
   1    6    8     3     6    8.8768E-01  5.5980E-02   8.3170E-01  0.000E+00  0.000E+00  0.000E+00  1.06158E+03  1.036E+00  6.145E+00  1.844E-02  1.518E+00
   1    5   10     4     1    1.0000E+01  9.0919E-02   9.9091E+00  0.000E+00  0.000E+00  0.000E+00  1.07836E+03  6.368E-01  1.000E+01  2.500E-02  1.212E+00
   1    5    9     4     2    9.9091E+00  1.8158E-01   9.7275E+00  0.000E+00  0.000E+00  0.000E+00  1.07154E+03  6.315E-01  1.000E+01  5.000E-02  1.211E+00
   1    6    8     4     3    9.7275E+00  1.2689E-01   9.6006E+00  0.000E+00  0.000E+00  0.000E+00  1.06381E+03  6.256E-01  1.000E+01  3.500E-02  1.209E+00
   1    6    8     5     1    1.0432E+01  2.2686E-01   1.0205E+01  0.000E+00  0.000E+00  0.000E+00  1.05868E+03  6.790E-01  1.542E+01  6.166E-02  1.226E+00
   1    7    7     5     2    1.0205E+01  2.7894E-01   9.9265E+00  0.000E+00  0.000E+00  0.000E+00  1.05417E+03  6.732E-01  1.519E+01  7.594E-02  1.224E+00
   1    8    7     5     3    9.9265E+00  1.9221E-01   9.7343E+00  0.000E+00  0.000E+00  0.000E+00  1.04992E+03  6.676E-01  1.497E+01  5.241E-02  1.223E+00
   1    8    6     5     4    9.7343E+00  1.3577E-01   9.5985E+00  0.000E+00  0.000E+00  0.000E+00  1.04691E+03  6.637E-01  1.482E+01  3.706E-02  1.221E+00
   1    9    6     6     1    3.2957E+01  2.6627E-01   3.2691E+01  0.000E+00  0.000E+00  0.000E+00  1.04417E+03  1.438E+00  1.200E+01  6.000E-02  1.479E+00
   1   10    7     6     2    3.2691E+01  2.6585E-01   3.2425E+01  0.000E+00  0.000E+00  0.000E+00  1.03961E+03  1.431E+00  1.200E+01  6.000E-02  1.477E+00
   1   11    7     6     3    3.2425E+01  2.6542E-01   3.2160E+01  0.000E+00  0.000E+00  0.000E+00  1.03506E+03  1.424E+00  1.200E+01  6.000E-02  1.475E+00
   1   12    7     6     4    3.2160E+01  2.6500E-01   3.1895E+01  0.000E+00  0.000E+00  0.000E+00  1.03051E+03  1.417E+00  1.200E+01  6.000E-02  1.472E+00
   1   13    7     6     5    3.1895E+01  3.4296E-03   3.1891E+01  0.000E+00  0.000E+00  0.000E+00  1.02732E+03  1.413E+00  1.200E+01  2.400E-02  4.763E-02
   1   14    9     7     1    1.5000E+02  1.3317E+00   1.4867E+02  0.000E+00  0.000E+00  0.000E+00  1.03987E+03  2.288E+00  5.529E+01  5.593E-01  7.937E-01
   1   13    8     7     2    1.4867E+02  1.8133E+00   1.4686E+02  0.000E+00  0.000E+00  0.000E+00  1.03478E+03  2.279E+00  5.526E+01  6.148E-01  9.832E-01
   1   13    7     7     3    1.4686E+02  1.4022E+00   1.4545E+02  0.000E+00  0.000E+00  0.000E+00  1.02969E+03  2.271E+00  5.522E+01  5.585E-01  8.369E-01
   1   13    6     8     1    1.7734E+02  8.6106E-01   1.7648E+02  0.000E+00  0.000E+00  0.000E+00  1.02487E+03  2.997E+00  4.345E+01  4.428E-01  6.482E-01
   1   13    5     8     2    1.7648E+02  9.6466E-02   1.7639E+02  0.000E+00  0.000E+00  0.000E+00  1.01862E+03  2.994E+00  4.341E+01  4.423E-01  7.269E-02
   1   13    4     8     3    1.7639E+02 -2.9174E+00   1.7930E+02  0.000E+00  0.000E+00  0.000E+00  1.01238E+03  3.003E+00  4.354E+01  4.437E+00 -2.192E-01
   1   13    3     8     4    1.7930E+02 -4.0240E+00   1.8333E+02  0.000E+00  0.000E+00  0.000E+00  1.00615E+03  3.024E+00  4.385E+01  4.469E+00 -3.001E-01
   1   13    2     8     5    1.8333E+02 -2.9734E+00   1.8630E+02  0.000E+00  0.000E+00  0.000E+00  9.99921E+02  3.046E+00  4.417E+01  4.501E+00 -2.202E-01
   1   13    1     8     6    1.8630E+02 -2.2501E+00   1.8855E+02  0.000E+00  0.000E+00  0.000E+00  9.94937E+02  3.062E+00  4.440E+01  2.715E+00 -2.763E-01



 UBDSV3 SAVING "           GW ET" ON UNIT  61 AT TIME STEP 10, STRESS PERIOD 5
 UBDSV3 SAVING "    UZF RECHARGE" ON UNIT  61 AT TIME STEP 10, STRESS PERIOD 5
 UBDSV3 SAVING " SURFACE LEAKAGE" ON UNIT  61 AT TIME STEP 10, STRESS PERIOD 5
 UBDSV3 SAVING "       HORT+DUNN" ON UNIT  61 AT TIME STEP 10, STRESS PERIOD 5
 UBDSV3 SAVING "  STORAGE CHANGE" ON UNIT  61 AT TIME STEP 10, STRESS PERIOD 5


UNSATURATED ZONE PACKAGE VOLUMETRIC BUDGET FOR  TIME STEP    10 STRESS PERIOD    5
  ------------------------------------------------------------------------------



     CUMULATIVE VOLUMES      L**3       RATES FOR THIS TIME STEP      L**3/T
     ------------------                 ------------------------

           IN:                                      IN:
           ---                                      ---
        INFILTRATION =    10764276.8973          INFILTRATION =           4.5675

          OUT:                                     OUT:
          ----                                     ----
              UZF ET =    10690364.5279                UZF ET =           4.5675
        UZF RECHARGE =       73224.0000          UZF RECHARGE =       0.0000E+00

            IN - OUT =         688.3695              IN - OUT =       0.0000E+00

          STORAGE:                                 STORAGE:
          --------                                 --------
      STORAGE CHANGE =         688.4001        STORAGE CHANGE =      -2.8667E-12

 PERCENT DISCREPANCY IS DIFFERENCE BETWEEN IN-OUT MINUS CHANGE IN STORAGE
 DIVIDED BY THE AVERAGE OF IN AND OUT TIMES 100

 PERCENT DISCREPANCY =           0.00     PERCENT DISCREPANCY =           0.00






 

            AG WELLS      PERIOD    5   STEP  10
 AG WELL      1   LAYER   1   ROW     6   COL     4   RATE   -0.620000    
 AG WELL      2   LAYER   1   ROW     6   COL     5   RATE   -0.620000    
 AG WELL      3   LAYER   1   ROW     7   COL     4   RATE   -0.620000    
 AG WELL      4   LAYER   1   ROW     7   COL     5   RATE   -0.620000    
 AG WELL      5   LAYER   1   ROW     8   COL     4   RATE   -0.620000    
 AG WELL      6   LAYER   1   ROW     8   COL     5   RATE   -0.620000    
 
 

        GW IRRIGATION     PERIOD    5   STEP  10
 AG WELL      1   ROW     6   COL     4   RATE    0.620000    
 AG WELL      2   ROW     6   COL     5   RATE    0.620000    
 AG WELL      3   ROW     7   COL     4   RATE    0.620000    
 AG WELL      4   ROW     7   COL     5   RATE    0.620000    
 AG WELL      5   ROW     8   COL     4   RATE    0.620000    
 AG WELL      6   ROW     8   COL     5   RATE    0.620000    
 
1
  VOLUMETRIC BUDGET FOR AGRICULTURAL FIELDS AT  END OF TIME STEP   10, STRESS PERIOD   5
  ------------------------------------------------------------------------------

     CUMULATIVE VOLUMES      L**3       RATES FOR THIS TIME STEP      L**3/T
     ------------------                 ------------------------

           IN:                                      IN:
           ---                                      ---
               AG WELLS  =     3261303.5000                 AG WELLS  =           3.7200
      DIVERSION SEGMENTS =           0.0000        DIVERSION SEGMENTS =           0.0000
       IRRIGATION PONDS  =           0.0000         IRRIGATION PONDS  =           0.0000
           GW IRRIGATION =           0.0000             GW IRRIGATION =           0.0000
           SW IRRIGATION =           0.0000             SW IRRIGATION =           0.0000
        SYSTEM LOSSES GW =           0.0000          SYSTEM LOSSES GW =           0.0000
        SYSTEM LOSSES SW =           0.0000          SYSTEM LOSSES SW =           0.0000

                TOTAL IN =     3261303.5000                  TOTAL IN =           3.7200

          OUT:                                     OUT:
          ----                                     ----
               AG WELLS  =           0.0000                 AG WELLS  =           0.0000
      DIVERSION SEGMENTS =           0.0000        DIVERSION SEGMENTS =           0.0000
       IRRIGATION PONDS  =           0.0000         IRRIGATION PONDS  =           0.0000
           GW IRRIGATION =     3261303.5000             GW IRRIGATION =           3.7200
           SW IRRIGATION =           0.0000             SW IRRIGATION =           0.0000
        SYSTEM LOSSES GW =           0.0000          SYSTEM LOSSES GW =           0.0000
        SYSTEM LOSSES SW =           0.0000          SYSTEM LOSSES SW =           0.0000

               TOTAL OUT =     3261303.5000                 TOTAL OUT =           3.7200

                IN - OUT =           0.0000                  IN - OUT =           0.0000

     PERCENT DISCREPANCY =           0.00         PERCENT DISCREPANCY =           0.00



1
  VOLUMETRIC BUDGET FOR ENTIRE MODEL AT END OF TIME STEP   10, STRESS PERIOD   5
  ------------------------------------------------------------------------------

     CUMULATIVE VOLUMES      L**3       RATES FOR THIS TIME STEP      L**3/T
     ------------------                 ------------------------

           IN:                                      IN:
           ---                                      ---
             STORAGE     =     9827802.0000               STORAGE     =           5.5198
       CONSTANT HEAD     =           0.0000         CONSTANT HEAD     =           0.0000
     HEAD DEP BOUNDS     =     2526887.0000       HEAD DEP BOUNDS     =           0.2855
      STREAM LEAKAGE     =   109152240.0000        STREAM LEAKAGE     =          11.6137
        UZF RECHARGE     =       73223.9531          UZF RECHARGE     =           0.0000
               GW ET     =           0.0000                 GW ET     =           0.0000
     SURFACE LEAKAGE     =           0.0000       SURFACE LEAKAGE     =           0.0000
           AG WELLS      =           0.0000             AG WELLS      =           0.0000

                TOTAL IN =   121580152.0000                  TOTAL IN =          17.4189

          OUT:                                     OUT:
          ----                                     ----
             STORAGE     =    23501530.0000               STORAGE     =           1.1333
       CONSTANT HEAD     =           0.0000         CONSTANT HEAD     =           0.0000
     HEAD DEP BOUNDS     =     2587272.2500       HEAD DEP BOUNDS     =           0.2951
      STREAM LEAKAGE     =    92050696.0000        STREAM LEAKAGE     =          12.1649
        UZF RECHARGE     =           0.0000          UZF RECHARGE     =           0.0000
               GW ET     =      184383.8281                 GW ET     =           0.1054
     SURFACE LEAKAGE     =           0.0000       SURFACE LEAKAGE     =           0.0000
           AG WELLS      =     3261303.5000             AG WELLS      =           3.7200

               TOTAL OUT =   121585184.0000                 TOTAL OUT =          17.4188

                IN - OUT =       -5032.0000                  IN - OUT =       1.4305E-04

     PERCENT DISCREPANCY =          -0.00         PERCENT DISCREPANCY =           0.00






         TIME SUMMARY AT END OF TIME STEP   10 IN STRESS PERIOD    5
                    SECONDS     MINUTES      HOURS       DAYS        YEARS
                    -----------------------------------------------------------
   TIME STEP LENGTH  87667.      1461.1      24.352      1.0147     2.77799E-03
 STRESS PERIOD TIME 8.76667E+05  14611.      243.52      10.147     2.77799E-02
         TOTAL TIME 8.85306E+06 1.47551E+05  2459.2      102.47     0.28054    
1
 
 SOLVING FOR HEAD 
                                                   Max.-Head-Change                         Max.-Flux-Residual
  Residual-Control   Outer-Iter.   Inner-Iter.     Column Row Layer    Maximum-Head-Change  Column Row Layer    Maximum-Flux-Residual          L2-NORM 
          0                 1           2             2   13     1      -0.7211968173E-02       2   13    1        -0.4060447893E+00      0.8288577451E+00
          0                 2           2             4    7     1      -0.1164675299E-01       5    6    1        -0.6358634892E+00      0.1548252224E+01
          0                 3           2             4    7     1       0.7927305411E-03       5    6    1         0.4448705876E-01      0.1083143592E+00
          0                 4           1             4    7     1      -0.3154349324E-04       5    6    1        -0.1819234474E-02      0.4429688756E-02

    ------------------------------------------------
       NWT REQUIRED            4 OUTER ITERATIONS 
       AND A TOTAL OF          7 INNER ITERATIONS.
    ------------------------------------------------

 NO OUTPUT CONTROL FOR STRESS PERIOD    5   TIME STEP   11
 
 SOLVING FOR HEAD 
                                                   Max.-Head-Change                         Max.-Flux-Residual
  Residual-Control   Outer-Iter.   Inner-Iter.     Column Row Layer    Maximum-Head-Change  Column Row Layer    Maximum-Flux-Residual          L2-NORM 
          0                 1           2             2   13     1      -0.6670137461E-02       2   13    1        -0.3755431996E+00      0.7899723469E+00
          0                 2           2             4    7     1      -0.1165609738E-01       5    6    1        -0.6368544893E+00      0.1550010005E+01
          0                 3           2             4    7     1       0.7933668648E-03       5    6    1         0.4455679053E-01      0.1084394197E+00
          0                 4           1             4    7     1      -0.3156881349E-04       5    6    1        -0.1822121599E-02      0.4434420814E-02

    ------------------------------------------------
       NWT REQUIRED            4 OUTER ITERATIONS 
       AND A TOTAL OF          7 INNER ITERATIONS.
    ------------------------------------------------

 NO OUTPUT CONTROL FOR STRESS PERIOD    5   TIME STEP   12
 
 SOLVING FOR HEAD 
                                                   Max.-Head-Change                         Max.-Flux-Residual
  Residual-Control   Outer-Iter.   Inner-Iter.     Column Row Layer    Maximum-Head-Change  Column Row Layer    Maximum-Flux-Residual          L2-NORM 
          0                 1           2             2   13     1      -0.6168617089E-02       2   13    1        -0.3473071005E+00      0.7582151378E+00
          0                 2           2             4    7     1      -0.1166558787E-01       5    6    1        -0.6378003595E+00      0.1551747950E+01
          0                 3           2             4    7     1       0.7940131362E-03       5    6    1         0.4462333862E-01      0.1085625798E+00
          0                 4           1             4    7     1      -0.3159452908E-04       5    6    1        -0.1824876130E-02      0.4439557002E-02

    ------------------------------------------------
       NWT REQUIRED            4 OUTER ITERATIONS 
       AND A TOTAL OF          7 INNER ITERATIONS.
    ------------------------------------------------

 NO OUTPUT CONTROL FOR STRESS PERIOD    5   TIME STEP   13
 
 SOLVING FOR HEAD 
                                                   Max.-Head-Change                         Max.-Flux-Residual
  Residual-Control   Outer-Iter.   Inner-Iter.     Column Row Layer    Maximum-Head-Change  Column Row Layer    Maximum-Flux-Residual          L2-NORM 
          0                 1           2             2   13     1      -0.5704446563E-02       2   13    1        -0.3211706784E+00      0.7327994944E+00
          0                 2           2             4    7     1      -0.1167517472E-01       5    6    1        -0.6387023670E+00      0.1553460517E+01
          0                 3           2             4    7     1       0.7946659689E-03       5    6    1         0.4468679359E-01      0.1086838483E+00
          0                 4           1             4    7     1      -0.3162050555E-04       5    6    1        -0.1827501922E-02      0.4444585780E-02

    ------------------------------------------------
       NWT REQUIRED            4 OUTER ITERATIONS 
       AND A TOTAL OF          7 INNER ITERATIONS.
    ------------------------------------------------

 NO OUTPUT CONTROL FOR STRESS PERIOD    5   TIME STEP   14
 
 SOLVING FOR HEAD 
                                                   Max.-Head-Change                         Max.-Flux-Residual
  Residual-Control   Outer-Iter.   Inner-Iter.     Column Row Layer    Maximum-Head-Change  Column Row Layer    Maximum-Flux-Residual          L2-NORM 
          0                 1           2             2   13     1      -0.5274981049E-02       2   13    1        -0.2969857572E+00      0.7129878448E+00
          0                 2           2             4    7     1      -0.1168486528E-01       5    6    1        -0.6395632970E+00      0.1555146839E+01
          0                 3           2             4    7     1       0.7953258642E-03       5    6    1         0.4474735203E-01      0.1088031393E+00
          0                 4           1             4    7     1      -0.3164676362E-04       5    6    1        -0.1830007212E-02      0.4449556433E-02

    ------------------------------------------------
       NWT REQUIRED            4 OUTER ITERATIONS 
       AND A TOTAL OF          7 INNER ITERATIONS.
    ------------------------------------------------

 NO OUTPUT CONTROL FOR STRESS PERIOD    5   TIME STEP   15
 
 SOLVING FOR HEAD 
                                                   Max.-Head-Change                         Max.-Flux-Residual
  Residual-Control   Outer-Iter.   Inner-Iter.     Column Row Layer    Maximum-Head-Change  Column Row Layer    Maximum-Flux-Residual          L2-NORM 
          0                 1           2             2   13     1      -0.4877722183E-02       2   13    1        -0.2746123636E+00      0.6980473263E+00
          0                 2           2             4    7     1      -0.1169463880E-01       5    6    1        -0.6403858021E+00      0.1556800436E+01
          0                 3           2             4    7     1       0.7959914074E-03       5    6    1         0.4480519921E-01      0.1089198953E+00
          0                 4           1             4    7     1      -0.3167324619E-04       5    6    1        -0.1832399404E-02      0.4454403207E-02

    ------------------------------------------------
       NWT REQUIRED            4 OUTER ITERATIONS 
       AND A TOTAL OF          7 INNER ITERATIONS.
    ------------------------------------------------

 NO OUTPUT CONTROL FOR STRESS PERIOD    5   TIME STEP   16
 
 SOLVING FOR HEAD 
                                                   Max.-Head-Change                         Max.-Flux-Residual
  Residual-Control   Outer-Iter.   Inner-Iter.     Column Row Layer    Maximum-Head-Change  Column Row Layer    Maximum-Flux-Residual          L2-NORM 
          0                 1           2             2   13     1      -0.4510300728E-02       2   13    1        -0.2539175068E+00      0.6873364335E+00
          0                 2           2             4    7     1      -0.1170447709E-01       5    6    1        -0.6411739304E+00      0.1558423438E+01
          0                 3           2             4    7     1       0.7966613610E-03       5    6    1         0.4486051905E-01      0.1090342866E+00
          0                 4           1             4    7     1      -0.3169990468E-04       5    6    1        -0.1834676595E-02      0.4459129077E-02

    ------------------------------------------------
       NWT REQUIRED            4 OUTER ITERATIONS 
       AND A TOTAL OF          7 INNER ITERATIONS.
    ------------------------------------------------

 NO OUTPUT CONTROL FOR STRESS PERIOD    5   TIME STEP   17
 
 SOLVING FOR HEAD 
                                                   Max.-Head-Change                         Max.-Flux-Residual
  Residual-Control   Outer-Iter.   Inner-Iter.     Column Row Layer    Maximum-Head-Change  Column Row Layer    Maximum-Flux-Residual          L2-NORM 
          0                 1           2             2   13     1      -0.4170471418E-02       2   13    1        -0.2347752672E+00      0.6802242937E+00
          0                 2           2             4    7     1      -0.1171433715E-01       5    6    1        -0.6419265141E+00      0.1560011548E+01
          0                 3           2             4    7     1       0.7973327965E-03       5    6    1         0.4491334117E-01      0.1091460963E+00
          0                 4           1             4    7     1      -0.3172662165E-04       5    6    1        -0.1836850722E-02      0.4463765813E-02

    ------------------------------------------------
       NWT REQUIRED            4 OUTER ITERATIONS 
       AND A TOTAL OF          7 INNER ITERATIONS.
    ------------------------------------------------

 NO OUTPUT CONTROL FOR STRESS PERIOD    5   TIME STEP   18
 
 SOLVING FOR HEAD 
                                                   Max.-Head-Change                         Max.-Flux-Residual
  Residual-Control   Outer-Iter.   Inner-Iter.     Column Row Layer    Maximum-Head-Change  Column Row Layer    Maximum-Flux-Residual          L2-NORM 
          0                 1           2             5    6     1       0.4157280826E-02       5    6    1         0.2266943897E+00      0.6761746398E+00
          0                 2           2             4    7     1      -0.1172423084E-01       5    6    1        -0.6426490393E+00      0.1561566403E+01
          0                 3           2             4    7     1       0.7980065215E-03       5    6    1         0.4496404962E-01      0.1092555495E+00
          0                 4           1             4    7     1      -0.3175342957E-04       5    6    1        -0.1838937471E-02      0.4468261352E-02

    ------------------------------------------------
       NWT REQUIRED            4 OUTER ITERATIONS 
       AND A TOTAL OF          7 INNER ITERATIONS.
    ------------------------------------------------

 NO OUTPUT CONTROL FOR STRESS PERIOD    5   TIME STEP   19
 
 SOLVING FOR HEAD 
                                                   Max.-Head-Change                         Max.-Flux-Residual
  Residual-Control   Outer-Iter.   Inner-Iter.     Column Row Layer    Maximum-Head-Change  Column Row Layer    Maximum-Flux-Residual          L2-NORM 
          0                 1           2             5    6     1       0.4285131106E-02       5    6    1         0.2336209408E+00      0.6746738222E+00
          0                 2           2             4    7     1      -0.1173414349E-01       5    6    1        -0.6433416934E+00      0.1563086060E+01
          0                 3           2             4    7     1       0.7986815376E-03       5    6    1         0.4501265884E-01      0.1093624814E+00
          0                 4           1             4    7     1      -0.3178028930E-04       5    6    1        -0.1840937528E-02      0.4472693524E-02

    ------------------------------------------------
       NWT REQUIRED            4 OUTER ITERATIONS 
       AND A TOTAL OF          7 INNER ITERATIONS.
    ------------------------------------------------

 NO OUTPUT CONTROL FOR STRESS PERIOD    5   TIME STEP   20
 
 SOLVING FOR HEAD 
                                                   Max.-Head-Change                         Max.-Flux-Residual
  Residual-Control   Outer-Iter.   Inner-Iter.     Column Row Layer    Maximum-Head-Change  Column Row Layer    Maximum-Flux-Residual          L2-NORM 
          0                 1           2             5    6     1       0.4407583299E-02       5    6    1         0.2402498653E+00      0.6752892064E+00
          0                 2           2             4    7     1      -0.1174406123E-01       5    6    1        -0.6440045847E+00      0.1564569137E+01
          0                 3           2             4    7     1       0.7993568997E-03       5    6    1         0.4505917639E-01      0.1094671758E+00
          0                 4           1             4    7     1      -0.3180716239E-04       5    6    1        -0.1842851272E-02      0.4476988238E-02

    ------------------------------------------------
       NWT REQUIRED            4 OUTER ITERATIONS 
       AND A TOTAL OF          7 INNER ITERATIONS.
    ------------------------------------------------

 NO OUTPUT CONTROL FOR STRESS PERIOD    5   TIME STEP   21
 
 SOLVING FOR HEAD 
                                                   Max.-Head-Change                         Max.-Flux-Residual
  Residual-Control   Outer-Iter.   Inner-Iter.     Column Row Layer    Maximum-Head-Change  Column Row Layer    Maximum-Flux-Residual          L2-NORM 
          0                 1           2             5    6     1       0.4525565160E-02       5    6    1         0.2466321111E+00      0.6776637897E+00
          0                 2           2             4    7     1      -0.1175394635E-01       5    6    1        -0.6446428082E+00      0.1566010370E+01
          0                 3           2             4    7     1       0.8000300408E-03       5    6    1         0.4510395941E-01      0.1095681666E+00
          0                 4           1             4    7     1      -0.3183394705E-04       5    6    1        -0.1844693306E-02      0.4481156101E-02

    ------------------------------------------------
       NWT REQUIRED            4 OUTER ITERATIONS 
       AND A TOTAL OF          7 INNER ITERATIONS.
    ------------------------------------------------

 NO OUTPUT CONTROL FOR STRESS PERIOD    5   TIME STEP   22
 
 SOLVING FOR HEAD 
                                                   Max.-Head-Change                         Max.-Flux-Residual
  Residual-Control   Outer-Iter.   Inner-Iter.     Column Row Layer    Maximum-Head-Change  Column Row Layer    Maximum-Flux-Residual          L2-NORM 
          0                 1           2             5    6     1       0.4638734134E-02       5    6    1         0.2527493619E+00      0.6816736635E+00
          0                 2           2             4    7     1      -0.1176384131E-01       5    6    1        -0.6452545322E+00      0.1567439619E+01
          0                 3           2             4    7     1       0.8007038511E-03       5    6    1         0.4514688029E-01      0.1096685260E+00
          0                 4           1             4    7     1      -0.3186075866E-04       5    6    1        -0.1846458491E-02      0.4485293988E-02

    ------------------------------------------------
       NWT REQUIRED            4 OUTER ITERATIONS 
       AND A TOTAL OF          7 INNER ITERATIONS.
    ------------------------------------------------

 NO OUTPUT CONTROL FOR STRESS PERIOD    5   TIME STEP   23
 
 SOLVING FOR HEAD 
                                                   Max.-Head-Change                         Max.-Flux-Residual
  Residual-Control   Outer-Iter.   Inner-Iter.     Column Row Layer    Maximum-Head-Change  Column Row Layer    Maximum-Flux-Residual          L2-NORM 
          0                 1           2             5    6     1       0.4747664591E-02       5    6    1         0.2586336713E+00      0.6867655231E+00
          0                 2           2             4    7     1      -0.1177365542E-01       5    6    1        -0.6458429621E+00      0.1568823271E+01
          0                 3           2             4    7     1       0.8013756768E-03       5    6    1         0.4518816449E-01      0.1097610831E+00
          0                 4           1             4    8     1      -0.3208672052E-04       5    6    1        -0.1848156131E-02      0.4495507877E-02

    ------------------------------------------------
       NWT REQUIRED            4 OUTER ITERATIONS 
       AND A TOTAL OF          7 INNER ITERATIONS.
    ------------------------------------------------

 NO OUTPUT CONTROL FOR STRESS PERIOD    5   TIME STEP   24
 
 SOLVING FOR HEAD 
                                                   Max.-Head-Change                         Max.-Flux-Residual
  Residual-Control   Outer-Iter.   Inner-Iter.     Column Row Layer    Maximum-Head-Change  Column Row Layer    Maximum-Flux-Residual          L2-NORM 
          0                 1           2             5    6     1       0.4852593326E-02       5    6    1         0.2642982148E+00      0.6927086796E+00
          0                 2           2             5    7     1      -0.1178350139E-01       5    6    1        -0.6464094154E+00      0.1570173980E+01
          0                 3           2             5    7     1       0.8020450567E-03       5    6    1         0.4522790466E-01      0.1097794853E+00
          0                 4           1             5    7     1      -0.3191417142E-04       5    6    1        -0.1849790051E-02      0.4489872526E-02

    ------------------------------------------------
       NWT REQUIRED            4 OUTER ITERATIONS 
       AND A TOTAL OF          7 INNER ITERATIONS.
    ------------------------------------------------

 NO OUTPUT CONTROL FOR STRESS PERIOD    5   TIME STEP   25
 
 SOLVING FOR HEAD 
                                                   Max.-Head-Change                         Max.-Flux-Residual
  Residual-Control   Outer-Iter.   Inner-Iter.     Column Row Layer    Maximum-Head-Change  Column Row Layer    Maximum-Flux-Residual          L2-NORM 
          0                 1           2             5    6     1       0.4953752916E-02       5    6    1         0.2697552685E+00      0.6992764780E+00
          0                 2           2             5    7     1      -0.1179358786E-01       5    6    1        -0.6469551198E+00      0.1571491395E+01
          0                 3           2             5    7     1       0.8027304668E-03       5    6    1         0.4526618589E-01      0.1097977853E+00
          0                 4           1             5    7     1      -0.3194144446E-04       5    6    1        -0.1851363703E-02      0.4490652681E-02

    ------------------------------------------------
       NWT REQUIRED            4 OUTER ITERATIONS 
       AND A TOTAL OF          7 INNER ITERATIONS.
    ------------------------------------------------

 NO OUTPUT CONTROL FOR STRESS PERIOD    5   TIME STEP   26
 
 SOLVING FOR HEAD 
                                                   Max.-Head-Change                         Max.-Flux-Residual
  Residual-Control   Outer-Iter.   Inner-Iter.     Column Row Layer    Maximum-Head-Change  Column Row Layer    Maximum-Flux-Residual          L2-NORM 
          0                 1           2             5    6     1       0.5051348551E-02       5    6    1         0.2750168930E+00      0.7063848333E+00
          0                 2           2             5    7     1      -0.1180347032E-01       5    6    1        -0.6474812812E+00      0.1572766279E+01
          0                 3           2             5    7     1       0.8034062267E-03       5    6    1         0.4530309424E-01      0.1100426961E+00
          0                 4           1             5    7     1      -0.3196833343E-04       5    6    1        -0.1852880730E-02      0.4500703243E-02

    ------------------------------------------------
       NWT REQUIRED            4 OUTER ITERATIONS 
       AND A TOTAL OF          7 INNER ITERATIONS.
    ------------------------------------------------

 NO OUTPUT CONTROL FOR STRESS PERIOD    5   TIME STEP   27
 
 SOLVING FOR HEAD 
                                                   Max.-Head-Change                         Max.-Flux-Residual
  Residual-Control   Outer-Iter.   Inner-Iter.     Column Row Layer    Maximum-Head-Change  Column Row Layer    Maximum-Flux-Residual          L2-NORM 
          0                 1           2             5    6     1       0.5145279400E-02       5    6    1         0.2800771258E+00      0.7139028479E+00
          0                 2           2             5    7     1      -0.1181314773E-01       5    6    1        -0.6479873035E+00      0.1574016293E+01
          0                 3           2             5    7     1       0.8040652224E-03       5    6    1         0.4533858771E-01      0.1101303596E+00
          0                 4           1             5    7     1      -0.3199455581E-04       5    6    1        -0.1854339380E-02      0.4504285635E-02

    ------------------------------------------------
       NWT REQUIRED            4 OUTER ITERATIONS 
       AND A TOTAL OF          7 INNER ITERATIONS.
    ------------------------------------------------

 NO OUTPUT CONTROL FOR STRESS PERIOD    5   TIME STEP   28
 
 SOLVING FOR HEAD 
                                                   Max.-Head-Change                         Max.-Flux-Residual
  Residual-Control   Outer-Iter.   Inner-Iter.     Column Row Layer    Maximum-Head-Change  Column Row Layer    Maximum-Flux-Residual          L2-NORM 
          0                 1           2             5    6     1       0.5242574274E-02       5    6    1         0.2849639443E+00      0.8408734730E+00
          0                 2           2             5    7     1      -0.1182325353E-01       5    6    1        -0.6484759926E+00      0.1575803189E+01
          0                 3           2             5    7     1       0.8047533733E-03       5    6    1         0.4537272052E-01      0.1102532199E+00
          0                 4           1             5    7     1      -0.3202193868E-04       5    6    1        -0.1855728315E-02      0.4509203092E-02

    ------------------------------------------------
       NWT REQUIRED            4 OUTER ITERATIONS 
       AND A TOTAL OF          7 INNER ITERATIONS.
    ------------------------------------------------

 NO OUTPUT CONTROL FOR STRESS PERIOD    5   TIME STEP   29
 
 SOLVING FOR HEAD 
                                                   Max.-Head-Change                         Max.-Flux-Residual
  Residual-Control   Outer-Iter.   Inner-Iter.     Column Row Layer    Maximum-Head-Change  Column Row Layer    Maximum-Flux-Residual          L2-NORM 
          0                 1           2             4   13     1       0.2591910825E-01       4   13    1         0.1501266771E+01      0.2742565807E+01
          0                 2           2             5    7     1      -0.1183483732E-01       5    6    1        -0.6489821348E+00      0.1599875568E+01
          0                 3           2             5    7     1       0.8055421426E-03       5    6    1         0.4540529274E-01      0.1118066672E+00
          0                 4           1             5    7     1      -0.3205332684E-04       5    6    1        -0.1856783622E-02      0.4564785060E-02

    ------------------------------------------------
       NWT REQUIRED            4 OUTER ITERATIONS 
       AND A TOTAL OF          7 INNER ITERATIONS.
    ------------------------------------------------

 NO OUTPUT CONTROL FOR STRESS PERIOD    5   TIME STEP   30



 STREAM LISTING     PERIOD      5   STEP       30

 LAYER ROW COL. STREAM  RCH.  FLOW INTO     FLOW TO   FLOW OUT OF   OVRLND.     DIRECT     STREAM       STREAM     STREAM     STREAM   STREAMBED  STREAMBED
                SEG.NO.  NO.  STRM. RCH.    AQUIFER    STRM. RCH.    RUNOFF     PRECIP       ET          HEAD       DEPTH      WIDTH   CONDCTNC.   GRADIENT

   1    1    1     1     1    9.9000E+01  4.7281E-01   9.8528E+01  0.000E+00  0.000E+00  0.000E+00  1.09484E+03  1.796E+00  2.191E+01  9.859E-02  1.599E+00
   1    2    2     1     2    9.8528E+01  7.3365E-01   9.7794E+01  0.000E+00  0.000E+00  0.000E+00  1.08985E+03  1.793E+00  2.187E+01  1.531E-01  1.598E+00
   1    3    3     1     3    9.7794E+01  6.2707E-01   9.7167E+01  0.000E+00  0.000E+00  0.000E+00  1.08421E+03  1.791E+00  2.181E+01  1.309E-01  1.597E+00
   1    3    4     1     4    9.7167E+01  5.7859E-01   9.6588E+01  0.000E+00  0.000E+00  0.000E+00  1.07920E+03  1.789E+00  2.177E+01  1.208E-01  1.596E+00
   1    4    5     2     1    9.4588E+01  4.4299E-01   9.4145E+01  0.000E+00  0.000E+00  0.000E+00  1.07461E+03  2.679E+00  1.200E+01  7.800E-02  1.893E+00
   1    5    6     2     2    9.4145E+01  3.4036E-01   9.3805E+01  0.000E+00  0.000E+00  0.000E+00  1.06918E+03  2.673E+00  1.200E+01  6.000E-02  1.891E+00
   1    6    6     2     3    9.3805E+01  3.4001E-01   9.3465E+01  0.000E+00  0.000E+00  0.000E+00  1.06446E+03  2.667E+00  1.200E+01  6.000E-02  1.889E+00
   1    7    6     2     4    9.3465E+01  3.3967E-01   9.3125E+01  0.000E+00  0.000E+00  0.000E+00  1.05974E+03  2.661E+00  1.200E+01  6.000E-02  1.887E+00
   1    8    6     2     5    9.3125E+01  3.3932E-01   9.2786E+01  0.000E+00  0.000E+00  0.000E+00  1.05501E+03  2.655E+00  1.200E+01  6.000E-02  1.885E+00
   1    3    5     3     1    2.0000E+00  2.8252E-01   1.7175E+00  0.000E+00  0.000E+00  0.000E+00  1.07555E+03  1.909E+00  9.636E+00  7.227E-02  1.955E+00
   1    3    6     3     2    1.7175E+00  2.4905E-01   1.4684E+00  0.000E+00  0.000E+00  0.000E+00  1.07264E+03  1.727E+00  8.909E+00  6.682E-02  1.864E+00
   1    3    7     3     3    1.4684E+00  1.9718E-01   1.2712E+00  0.000E+00  0.000E+00  0.000E+00  1.06987E+03  1.555E+00  8.218E+00  5.547E-02  1.777E+00
   1    4    8     3     4    1.2712E+00  2.2567E-01   1.0456E+00  0.000E+00  0.000E+00  0.000E+00  1.06682E+03  1.364E+00  7.455E+00  6.709E-02  1.682E+00
   1    5    8     3     5    1.0456E+00  1.5790E-01   8.8768E-01  0.000E+00  0.000E+00  0.000E+00  1.06362E+03  1.164E+00  6.655E+00  4.991E-02  1.582E+00
   1    6    8     3     6    8.8768E-01  5.5980E-02   8.3170E-01  0.000E+00  0.000E+00  0.000E+00  1.06158E+03  1.036E+00  6.145E+00  1.844E-02  1.518E+00
   1    5   10     4     1    1.0000E+01  9.0919E-02   9.9091E+00  0.000E+00  0.000E+00  0.000E+00  1.07836E+03  6.368E-01  1.000E+01  2.500E-02  1.212E+00
   1    5    9     4     2    9.9091E+00  1.8158E-01   9.7275E+00  0.000E+00  0.000E+00  0.000E+00  1.07154E+03  6.315E-01  1.000E+01  5.000E-02  1.211E+00
   1    6    8     4     3    9.7275E+00  1.2689E-01   9.6006E+00  0.000E+00  0.000E+00  0.000E+00  1.06381E+03  6.256E-01  1.000E+01  3.500E-02  1.209E+00
   1    6    8     5     1    1.0432E+01  2.2686E-01   1.0205E+01  0.000E+00  0.000E+00  0.000E+00  1.05868E+03  6.790E-01  1.542E+01  6.166E-02  1.226E+00
   1    7    7     5     2    1.0205E+01  2.7894E-01   9.9265E+00  0.000E+00  0.000E+00  0.000E+00  1.05417E+03  6.732E-01  1.519E+01  7.594E-02  1.224E+00
   1    8    7     5     3    9.9265E+00  1.9221E-01   9.7343E+00  0.000E+00  0.000E+00  0.000E+00  1.04992E+03  6.676E-01  1.497E+01  5.241E-02  1.223E+00
   1    8    6     5     4    9.7343E+00  1.3577E-01   9.5985E+00  0.000E+00  0.000E+00  0.000E+00  1.04691E+03  6.637E-01  1.482E+01  3.706E-02  1.221E+00
   1    9    6     6     1    1.0238E+02  3.5054E-01   1.0203E+02  0.000E+00  0.000E+00  0.000E+00  1.04557E+03  2.842E+00  1.200E+01  6.000E-02  1.947E+00
   1   10    7     6     2    1.0203E+02  3.5018E-01   1.0168E+02  0.000E+00  0.000E+00  0.000E+00  1.04102E+03  2.836E+00  1.200E+01  6.000E-02  1.945E+00
   1   11    7     6     3    1.0168E+02  3.4983E-01   1.0133E+02  0.000E+00  0.000E+00  0.000E+00  1.03647E+03  2.831E+00  1.200E+01  6.000E-02  1.944E+00
   1   12    7     6     4    1.0133E+02  3.4948E-01   1.0098E+02  0.000E+00  0.000E+00  0.000E+00  1.03192E+03  2.825E+00  1.200E+01  6.000E-02  1.942E+00
   1   13    7     6     5    1.0098E+02  3.7134E-02   1.0095E+02  0.000E+00  0.000E+00  0.000E+00  1.02873E+03  2.821E+00  1.200E+01  2.400E-02  5.158E-01
   1   14    9     7     1    1.5000E+02  1.3318E+00   1.4867E+02  0.000E+00  0.000E+00  0.000E+00  1.03987E+03  2.288E+00  5.529E+01  5.593E-01  7.937E-01
   1   13    8     7     2    1.4867E+02  1.8109E+00   1.4686E+02  0.000E+00  0.000E+00  0.000E+00  1.03478E+03  2.279E+00  5.526E+01  6.148E-01  9.819E-01
   1   13    7     7     3    1.4686E+02  1.4000E+00   1.4546E+02  0.000E+00  0.000E+00  0.000E+00  1.02969E+03  2.271E+00  5.522E+01  5.585E-01  8.356E-01
   1   13    6     8     1    2.4640E+02  1.1761E+00   2.4523E+02  0.000E+00  0.000E+00  0.000E+00  1.02527E+03  3.390E+00  4.916E+01  5.009E-01  7.826E-01
   1   13    5     8     2    2.4523E+02  3.1456E-01   2.4491E+02  0.000E+00  0.000E+00  0.000E+00  1.01901E+03  3.386E+00  4.910E+01  5.003E-01  2.096E-01
   1   13    4     8     3    2.4491E+02 -1.2778E+00   2.4619E+02  0.000E+00  0.000E+00  0.000E+00  1.01276E+03  3.389E+00  4.914E+01  5.007E+00 -8.506E-02
   1   13    3     8     4    2.4619E+02 -2.5237E+00   2.4872E+02  0.000E+00  0.000E+00  0.000E+00  1.00652E+03  3.399E+00  4.928E+01  5.022E+00 -1.675E-01
   1   13    2     8     5    2.4872E+02 -1.3007E+00   2.5002E+02  0.000E+00  0.000E+00  0.000E+00  1.00028E+03  3.408E+00  4.942E+01  5.036E+00 -8.609E-02
   1   13    1     8     6    2.5002E+02 -1.2936E+00   2.5131E+02  0.000E+00  0.000E+00  0.000E+00  9.95290E+02  3.415E+00  4.952E+01  3.028E+00 -1.424E-01





UNSATURATED ZONE PACKAGE VOLUMETRIC BUDGET FOR  TIME STEP    30 STRESS PERIOD    5
  ------------------------------------------------------------------------------



     CUMULATIVE VOLUMES      L**3       RATES FOR THIS TIME STEP      L**3/T
     ------------------                 ------------------------

           IN:                                      IN:
           ---                                      ---
        INFILTRATION =    18772626.5024          INFILTRATION =           4.5675

          OUT:                                     OUT:
          ----                                     ----
              UZF ET =    18698714.1330                UZF ET =           4.5675
        UZF RECHARGE =       73224.0000          UZF RECHARGE =       0.0000E+00

            IN - OUT =         688.3695              IN - OUT =       0.0000E+00

          STORAGE:                                 STORAGE:
          --------                                 --------
      STORAGE CHANGE =         688.4001        STORAGE CHANGE =      -2.8666E-12

 PERCENT DISCREPANCY IS DIFFERENCE BETWEEN IN-OUT MINUS CHANGE IN STORAGE
 DIVIDED BY THE AVERAGE OF IN AND OUT TIMES 100

 PERCENT DISCREPANCY =           0.00     PERCENT DISCREPANCY =           0.00






1
  VOLUMETRIC BUDGET FOR AGRICULTURAL FIELDS AT  END OF TIME STEP   30, STRESS PERIOD   5
  ------------------------------------------------------------------------------

     CUMULATIVE VOLUMES      L**3       RATES FOR THIS TIME STEP      L**3/T
     ------------------                 ------------------------

           IN:                                      IN:
           ---                                      ---
               AG WELLS  =     9783704.0000                 AG WELLS  =           3.7200
      DIVERSION SEGMENTS =           0.0000        DIVERSION SEGMENTS =           0.0000
       IRRIGATION PONDS  =           0.0000         IRRIGATION PONDS  =           0.0000
           GW IRRIGATION =           0.0000             GW IRRIGATION =           0.0000
           SW IRRIGATION =           0.0000             SW IRRIGATION =           0.0000
        SYSTEM LOSSES GW =           0.0000          SYSTEM LOSSES GW =           0.0000
        SYSTEM LOSSES SW =           0.0000          SYSTEM LOSSES SW =           0.0000

                TOTAL IN =     9783704.0000                  TOTAL IN =           3.7200

          OUT:                                     OUT:
          ----                                     ----
               AG WELLS  =           0.0000                 AG WELLS  =           0.0000
      DIVERSION SEGMENTS =           0.0000        DIVERSION SEGMENTS =           0.0000
       IRRIGATION PONDS  =           0.0000         IRRIGATION PONDS  =           0.0000
           GW IRRIGATION =     9783704.0000             GW IRRIGATION =           3.7200
           SW IRRIGATION =           0.0000             SW IRRIGATION =           0.0000
        SYSTEM LOSSES GW =           0.0000          SYSTEM LOSSES GW =           0.0000
        SYSTEM LOSSES SW =           0.0000          SYSTEM LOSSES SW =           0.0000

               TOTAL OUT =     9783704.0000                 TOTAL OUT =           3.7200

                IN - OUT =           0.0000                  IN - OUT =           0.0000

     PERCENT DISCREPANCY =           0.00         PERCENT DISCREPANCY =           0.00



1
  VOLUMETRIC BUDGET FOR ENTIRE MODEL AT END OF TIME STEP   30, STRESS PERIOD   5
  ------------------------------------------------------------------------------

     CUMULATIVE VOLUMES      L**3       RATES FOR THIS TIME STEP      L**3/T
     ------------------                 ------------------------

           IN:                                      IN:
           ---                                      ---
             STORAGE     =    17886916.0000               STORAGE     =           3.4385
       CONSTANT HEAD     =           0.0000         CONSTANT HEAD     =           0.0000
     HEAD DEP BOUNDS     =     3027432.2500       HEAD DEP BOUNDS     =           0.2855
      STREAM LEAKAGE     =   129797984.0000        STREAM LEAKAGE     =          14.0865
        UZF RECHARGE     =       73223.9531          UZF RECHARGE     =           0.0000
               GW ET     =           0.0000                 GW ET     =           0.0000
     SURFACE LEAKAGE     =           0.0000       SURFACE LEAKAGE     =           0.0000
           AG WELLS      =           0.0000             AG WELLS      =           0.0000

                TOTAL IN =   150785552.0000                  TOTAL IN =          17.8105

          OUT:                                     OUT:
          ----                                     ----
             STORAGE     =    25817580.0000               STORAGE     =           7.3455
       CONSTANT HEAD     =           0.0000         CONSTANT HEAD     =           0.0000
     HEAD DEP BOUNDS     =     3102142.7500       HEAD DEP BOUNDS     =           0.2933
      STREAM LEAKAGE     =   111847928.0000        STREAM LEAKAGE     =           6.3958
        UZF RECHARGE     =           0.0000          UZF RECHARGE     =           0.0000
               GW ET     =      238986.7344                 GW ET     =       5.5743E-02
     SURFACE LEAKAGE     =           0.0000       SURFACE LEAKAGE     =           0.0000
           AG WELLS      =     9783704.0000             AG WELLS      =           3.7200

               TOTAL OUT =   150790336.0000                 TOTAL OUT =          17.8103

                IN - OUT =       -4784.0000                  IN - OUT =       1.6975E-04

     PERCENT DISCREPANCY =          -0.00         PERCENT DISCREPANCY =           0.00






         TIME SUMMARY AT END OF TIME STEP   30 IN STRESS PERIOD    5
                    SECONDS     MINUTES      HOURS       DAYS        YEARS
                    -----------------------------------------------------------
   TIME STEP LENGTH  87667.      1461.1      24.352      1.0147     2.77799E-03
 STRESS PERIOD TIME 2.63000E+06  43833.      730.56      30.440     8.33397E-02
         TOTAL TIME 1.06064E+07 1.76773E+05  2946.2      122.76     0.33610    
1
1
                            STRESS PERIOD NO.    6, LENGTH =   2630000.    
                            -----------------------------------------------

                              NUMBER OF TIME STEPS =    30

                               MULTIPLIER FOR DELT =     1.000

                            INITIAL TIME STEP SIZE =   87666.66    

 REUSING NON-PARAMETER GHB CELLS FROM LAST STRESS PERIOD

      2 GHB CELLS

 REUSING STREAM SEGMENT DATA FROM LAST STRESS PERIOD



            AREAL INFILTRATION RATE
 READING ON UNIT   19 WITH FORMAT: (FREE)              

            1           2           3           4           5           6           7           8           9          10
 ........................................................................................................................
   1   1.0000E-10  2.0000E-10   0.000       0.000       0.000       0.000       0.000       0.000       0.000       0.000    
   2   2.0000E-10  1.0000E-10  2.0000E-10   0.000       0.000      8.0000E-10  8.0000E-10  5.0000E-10   0.000       0.000    
   3    0.000      5.0000E-10  1.0000E-10  1.0000E-10  8.0000E-10  8.0000E-10  5.0000E-10  5.0000E-10   0.000       0.000    
   4   8.0000E-10  5.0000E-10  1.0000E-10  1.0000E-10  1.0000E-10  1.0000E-10  1.0000E-10  1.0000E-10  2.0000E-10   0.000    
   5   8.0000E-10  5.0000E-10  1.0000E-10  1.0000E-10  1.0000E-10  1.0000E-10  1.0000E-10  1.0000E-10  1.0000E-10  1.0000E-10
   6   8.0000E-10  5.0000E-10  5.0000E-10  2.0000E-10  2.0000E-10  1.0000E-10  1.0000E-10  1.0000E-10  1.0000E-10  5.0000E-10
   7   8.0000E-10  5.0000E-10  5.0000E-10  2.0000E-10  2.0000E-10  1.0000E-10  1.0000E-10  2.0000E-10  2.0000E-10   0.000    
   8    0.000      5.0000E-10  5.0000E-10  2.0000E-10  2.0000E-10  1.0000E-10  1.0000E-10  2.0000E-10  5.0000E-10   0.000    
   9    0.000      5.0000E-10  5.0000E-10  2.0000E-10  2.0000E-10  1.0000E-10  1.0000E-10  2.0000E-10  5.0000E-10   0.000    
  10    0.000      5.0000E-10  5.0000E-10  2.0000E-10  2.0000E-10  1.0000E-10  1.0000E-10  2.0000E-10  5.0000E-10  8.0000E-10
  11    0.000      1.0000E-10  1.0000E-10  1.0000E-10  1.0000E-10  1.0000E-10  1.0000E-10  2.0000E-10  5.0000E-10   0.000    
  12   1.0000E-10  1.0000E-10  1.0000E-10  1.0000E-10  1.0000E-10  1.0000E-10  1.0000E-10  1.0000E-10  2.0000E-10   0.000    
  13   1.0000E-10  1.0000E-10  2.0000E-10  2.0000E-10  2.0000E-10  2.0000E-10  2.0000E-10  1.0000E-10  1.0000E-10   0.000    
  14    0.000      2.0000E-10  5.0000E-10  5.0000E-10  5.0000E-10  5.0000E-10  5.0000E-10  2.0000E-10  1.0000E-10   0.000    
  15    0.000       0.000      8.0000E-10  8.0000E-10  8.0000E-10  8.0000E-10   0.000       0.000       0.000       0.000    

                  ET RATE =  5.000000E-08

 USING ET EXTINCTION DEPTH FROM PREVIOUS STRESS PERIOD. CURRENT PERIOD IS:       6

 USING EXTINCTION WATER CONTENT FROM PREVIOUS STRESS PERIOD. CURRENT PERIOD IS:       6

 USING AIR ENTRY PRESSURE FROM PREVIOUS STRESS PERIOD. CURRENT PERIOD IS:       6

 USING ROOT PRESSURE HEAD FROM PREVIOUS STRESS PERIOD. CURRENT PERIOD IS:       6

 USING ROOT ACTIVITY FROM PREVIOUS STRESS PERIOD. CURRENT PERIOD IS:       6

 PROCESSING AG STRESS PERIOD DATA

 READING AG STRESS PERIOD DATA

 READING IRRIGATION WELL

 NO IRRPOND OR REUSING IRRPOND DATA FROM LAST STRESS PERIOD

 END PROCESSING AG STRESS PERIOD DATA OPTIONS
 
 SOLVING FOR HEAD 
                                                   Max.-Head-Change                         Max.-Flux-Residual
  Residual-Control   Outer-Iter.   Inner-Iter.     Column Row Layer    Maximum-Head-Change  Column Row Layer    Maximum-Flux-Residual          L2-NORM 
          0                 1           2             2   13     1       0.2250399361E-01       4   13    1         0.1302941920E+01      0.3463269337E+01
          0                 2           2             4   13     1      -0.2084567289E-02       4   13    1        -0.1289057103E+00      0.3415688045E+00
          0                 3           2             4   13     1       0.1398128826E-03       4   13    1         0.8889301051E-02      0.2347326006E-01
          0                 4           1             4    7     1       0.5521177785E-05       4   13    1        -0.3543898874E-03      0.9329650048E-03

    ------------------------------------------------
       NWT REQUIRED            4 OUTER ITERATIONS 
       AND A TOTAL OF          7 INNER ITERATIONS.
    ------------------------------------------------

 NO OUTPUT CONTROL FOR STRESS PERIOD    6   TIME STEP    1
 
 SOLVING FOR HEAD 
                                                   Max.-Head-Change                         Max.-Flux-Residual
  Residual-Control   Outer-Iter.   Inner-Iter.     Column Row Layer    Maximum-Head-Change  Column Row Layer    Maximum-Flux-Residual          L2-NORM 
          0                 1           2             2   13     1       0.2063683784E-01       2   13    1         0.1173044886E+01      0.2286900954E+01
          0                 2           2             4    7     1      -0.2340949347E-01       5    6    1        -0.1272036750E+01      0.3107692596E+01
          0                 3           2             4    7     1       0.1593906638E-02       5    6    1         0.8902205909E-01      0.2174582799E+00
          0                 4           1             4    7     1      -0.6342305086E-04       5    6    1        -0.3640047461E-02      0.8890775358E-02

    ------------------------------------------------
       NWT REQUIRED            4 OUTER ITERATIONS 
       AND A TOTAL OF          7 INNER ITERATIONS.
    ------------------------------------------------

 NO OUTPUT CONTROL FOR STRESS PERIOD    6   TIME STEP    2
 
 SOLVING FOR HEAD 
                                                   Max.-Head-Change                         Max.-Flux-Residual
  Residual-Control   Outer-Iter.   Inner-Iter.     Column Row Layer    Maximum-Head-Change  Column Row Layer    Maximum-Flux-Residual          L2-NORM 
          0                 1           2             2   13     1       0.1891850488E-01       2   13    1         0.1075525117E+01      0.2117089630E+01
          0                 2           2             4    7     1      -0.2351643599E-01       5    6    1        -0.1279117919E+01      0.3122413342E+01
          0                 3           2             4    7     1       0.1601189026E-02       5    6    1         0.8951844745E-01      0.2184969664E+00
          0                 4           1             4    7     1      -0.6371282380E-04       5    6    1        -0.3660418420E-02      0.8933722687E-02

    ------------------------------------------------
       NWT REQUIRED            4 OUTER ITERATIONS 
       AND A TOTAL OF          7 INNER ITERATIONS.
    ------------------------------------------------

 NO OUTPUT CONTROL FOR STRESS PERIOD    6   TIME STEP    3
 
 SOLVING FOR HEAD 
                                                   Max.-Head-Change                         Max.-Flux-Residual
  Residual-Control   Outer-Iter.   Inner-Iter.     Column Row Layer    Maximum-Head-Change  Column Row Layer    Maximum-Flux-Residual          L2-NORM 
          0                 1           2             2   13     1       0.1733827831E-01       2   13    1         0.9858053646E+00      0.1977058409E+01
          0                 2           2             4    7     1      -0.2353282893E-01       5    6    1        -0.1281224285E+01      0.3125362880E+01
          0                 3           2             4    7     1       0.1602305346E-02       5    6    1         0.8966662121E-01      0.2187103886E+00
          0                 4           1             4    7     1      -0.6375724279E-04       5    6    1        -0.3666549359E-02      0.8942848534E-02

    ------------------------------------------------
       NWT REQUIRED            4 OUTER ITERATIONS 
       AND A TOTAL OF          7 INNER ITERATIONS.
    ------------------------------------------------

 NO OUTPUT CONTROL FOR STRESS PERIOD    6   TIME STEP    4
 
 SOLVING FOR HEAD 
                                                   Max.-Head-Change                         Max.-Flux-Residual
  Residual-Control   Outer-Iter.   Inner-Iter.     Column Row Layer    Maximum-Head-Change  Column Row Layer    Maximum-Flux-Residual          L2-NORM 
          0                 1           2             2   13     1       0.1588609051E-01       2   13    1         0.9033235685E+00      0.1862890355E+01
          0                 2           2             4    7     1      -0.2354953478E-01       5    6    1        -0.1283227125E+01      0.3128391271E+01
          0                 3           2             4    7     1       0.1603442973E-02       5    6    1         0.8980750398E-01      0.2189279677E+00
          0                 4           1             4    7     1      -0.6380251005E-04       5    6    1        -0.3672377798E-02      0.8952009609E-02

    ------------------------------------------------
       NWT REQUIRED            4 OUTER ITERATIONS 
       AND A TOTAL OF          7 INNER ITERATIONS.
    ------------------------------------------------

 NO OUTPUT CONTROL FOR STRESS PERIOD    6   TIME STEP    5
 
 SOLVING FOR HEAD 
                                                   Max.-Head-Change                         Max.-Flux-Residual
  Residual-Control   Outer-Iter.   Inner-Iter.     Column Row Layer    Maximum-Head-Change  Column Row Layer    Maximum-Flux-Residual          L2-NORM 
          0                 1           2             2   13     1       0.1455239352E-01       2   13    1         0.8275455464E+00      0.1771112590E+01
          0                 2           2             4    7     1      -0.2356653727E-01       5    6    1        -0.1285134717E+01      0.3131460718E+01
          0                 3           2             4    7     1       0.1604600797E-02       5    6    1         0.8994167741E-01      0.2191476735E+00
          0                 4           1             4    7     1      -0.6384858135E-04       5    6    1        -0.3677927766E-02      0.8961313228E-02

    ------------------------------------------------
       NWT REQUIRED            4 OUTER ITERATIONS 
       AND A TOTAL OF          7 INNER ITERATIONS.
    ------------------------------------------------

 NO OUTPUT CONTROL FOR STRESS PERIOD    6   TIME STEP    6
 
 SOLVING FOR HEAD 
                                                   Max.-Head-Change                         Max.-Flux-Residual
  Residual-Control   Outer-Iter.   Inner-Iter.     Column Row Layer    Maximum-Head-Change  Column Row Layer    Maximum-Flux-Residual          L2-NORM 
          0                 1           2             2   13     1       0.1332835312E-01       2   13    1         0.7579762178E+00      0.1698561014E+01
          0                 2           2             4    7     1      -0.2358376913E-01       5    6    1        -0.1286953164E+01      0.3134541718E+01
          0                 3           2             4    7     1       0.1605774238E-02       5    6    1         0.9006957350E-01      0.2193673645E+00
          0                 4           1             4    7     1      -0.6389527319E-04       5    6    1        -0.3683217369E-02      0.8970507584E-02

    ------------------------------------------------
       NWT REQUIRED            4 OUTER ITERATIONS 
       AND A TOTAL OF          7 INNER ITERATIONS.
    ------------------------------------------------

 NO OUTPUT CONTROL FOR STRESS PERIOD    6   TIME STEP    7
 
 SOLVING FOR HEAD 
                                                   Max.-Head-Change                         Max.-Flux-Residual
  Residual-Control   Outer-Iter.   Inner-Iter.     Column Row Layer    Maximum-Head-Change  Column Row Layer    Maximum-Flux-Residual          L2-NORM 
          0                 1           2             2   13     1       0.1220541435E-01       2   13    1         0.6941350682E+00      0.1642349056E+01
          0                 2           2             4    7     1      -0.2360119235E-01       5    6    1        -0.1288686419E+01      0.3137609878E+01
          0                 3           2             4    7     1       0.1606960708E-02       5    6    1         0.9019146869E-01      0.2195854820E+00
          0                 4           1             4    7     1      -0.6394248402E-04       5    6    1        -0.3688257916E-02      0.8979643325E-02

    ------------------------------------------------
       NWT REQUIRED            4 OUTER ITERATIONS 
       AND A TOTAL OF          7 INNER ITERATIONS.
    ------------------------------------------------

 NO OUTPUT CONTROL FOR STRESS PERIOD    6   TIME STEP    8
 
 SOLVING FOR HEAD 
                                                   Max.-Head-Change                         Max.-Flux-Residual
  Residual-Control   Outer-Iter.   Inner-Iter.     Column Row Layer    Maximum-Head-Change  Column Row Layer    Maximum-Flux-Residual          L2-NORM 
          0                 1           2             2   13     1       0.1117581355E-01       2   13    1         0.6355855748E+00      0.1599908025E+01
          0                 2           2             4    7     1      -0.2361879850E-01       5    6    1        -0.1290341463E+01      0.3140651452E+01
          0                 3           2             4    7     1       0.1608159634E-02       5    6    1         0.9030785613E-01      0.2198012454E+00
          0                 4           1             4    7     1      -0.6399019037E-04       5    6    1        -0.3693069972E-02      0.8988610471E-02

    ------------------------------------------------
       NWT REQUIRED            4 OUTER ITERATIONS 
       AND A TOTAL OF          7 INNER ITERATIONS.
    ------------------------------------------------

 NO OUTPUT CONTROL FOR STRESS PERIOD    6   TIME STEP    9
 
 SOLVING FOR HEAD 
                                                   Max.-Head-Change                         Max.-Flux-Residual
  Residual-Control   Outer-Iter.   Inner-Iter.     Column Row Layer    Maximum-Head-Change  Column Row Layer    Maximum-Flux-Residual          L2-NORM 
          0                 1           2             2   13     1       0.1023214396E-01       2   13    1         0.5819105317E+00      0.1568952886E+01
          0                 2           2             4    7     1      -0.2363652769E-01       5    6    1        -0.1291919837E+01      0.3143652855E+01
          0                 3           2             4    7     1       0.1609366937E-02       5    6    1         0.9041884505E-01      0.2200138426E+00
          0                 4           1             4    7     1      -0.6403823012E-04       5    6    1        -0.3697658185E-02      0.8997484604E-02

    ------------------------------------------------
       NWT REQUIRED            4 OUTER ITERATIONS 
       AND A TOTAL OF          7 INNER ITERATIONS.
    ------------------------------------------------

 NO OUTPUT CONTROL FOR STRESS PERIOD    6   TIME STEP   10
 
 SOLVING FOR HEAD 
                                                   Max.-Head-Change                         Max.-Flux-Residual
  Residual-Control   Outer-Iter.   Inner-Iter.     Column Row Layer    Maximum-Head-Change  Column Row Layer    Maximum-Flux-Residual          L2-NORM 
          0                 1           2             2   13     1       0.9367609913E-02       2   13    1         0.5327268263E+00      0.1547483674E+01
          0                 2           2             4    7     1      -0.2365434965E-01       5    6    1        -0.1293429555E+01      0.3146607823E+01
          0                 3           2             4    7     1       0.1610580555E-02       5    6    1         0.9052499735E-01      0.2202228570E+00
          0                 4           1             4    7     1      -0.6408652086E-04       5    6    1        -0.3702045557E-02      0.9006176256E-02

    ------------------------------------------------
       NWT REQUIRED            4 OUTER ITERATIONS 
       AND A TOTAL OF          7 INNER ITERATIONS.
    ------------------------------------------------

 NO OUTPUT CONTROL FOR STRESS PERIOD    6   TIME STEP   11
 
 SOLVING FOR HEAD 
                                                   Max.-Head-Change                         Max.-Flux-Residual
  Residual-Control   Outer-Iter.   Inner-Iter.     Column Row Layer    Maximum-Head-Change  Column Row Layer    Maximum-Flux-Residual          L2-NORM 
          0                 1           2             5    6     1       0.9186160552E-02       5    6    1         0.4988539451E+00      0.1533801332E+01
          0                 2           2             4    7     1      -0.2367226355E-01       5    6    1        -0.1294874872E+01      0.3149511043E+01
          0                 3           2             4    7     1       0.1611800433E-02       5    6    1         0.9062661453E-01      0.2204280358E+00
          0                 4           1             4    7     1      -0.6413506096E-04       5    6    1        -0.3706244860E-02      0.9014664912E-02

    ------------------------------------------------
       NWT REQUIRED            4 OUTER ITERATIONS 
       AND A TOTAL OF          7 INNER ITERATIONS.
    ------------------------------------------------

 NO OUTPUT CONTROL FOR STRESS PERIOD    6   TIME STEP   12
 
 SOLVING FOR HEAD 
                                                   Max.-Head-Change                         Max.-Flux-Residual
  Residual-Control   Outer-Iter.   Inner-Iter.     Column Row Layer    Maximum-Head-Change  Column Row Layer    Maximum-Flux-Residual          L2-NORM 
          0                 1           2             5    6     1       0.9440695148E-02       5    6    1         0.5126684735E+00      0.1526419317E+01
          0                 2           2             4    7     1      -0.2369021472E-01       5    6    1        -0.1296256321E+01      0.3152355026E+01
          0                 3           2             4    7     1       0.1613022847E-02       5    6    1         0.9072373446E-01      0.2206287319E+00
          0                 4           1             4    7     1      -0.6418370214E-04       5    6    1        -0.3710257626E-02      0.9023030294E-02

    ------------------------------------------------
       NWT REQUIRED            4 OUTER ITERATIONS 
       AND A TOTAL OF          7 INNER ITERATIONS.
    ------------------------------------------------

 NO OUTPUT CONTROL FOR STRESS PERIOD    6   TIME STEP   13
 
 SOLVING FOR HEAD 
                                                   Max.-Head-Change                         Max.-Flux-Residual
  Residual-Control   Outer-Iter.   Inner-Iter.     Column Row Layer    Maximum-Head-Change  Column Row Layer    Maximum-Flux-Residual          L2-NORM 
          0                 1           2             5    6     1       0.9684642084E-02       5    6    1         0.5258990366E+00      0.1524127600E+01
          0                 2           2             4    7     1      -0.2370818014E-01       5    6    1        -0.1297579374E+01      0.3155140107E+01
          0                 3           2             4    7     1       0.1614246231E-02       5    6    1         0.9081674236E-01      0.2208250482E+00
          0                 4           1             4    7     1      -0.6423238131E-04       5    6    1        -0.3714099865E-02      0.9031166719E-02

    ------------------------------------------------
       NWT REQUIRED            4 OUTER ITERATIONS 
       AND A TOTAL OF          7 INNER ITERATIONS.
    ------------------------------------------------

 NO OUTPUT CONTROL FOR STRESS PERIOD    6   TIME STEP   14
 
 SOLVING FOR HEAD 
                                                   Max.-Head-Change                         Max.-Flux-Residual
  Residual-Control   Outer-Iter.   Inner-Iter.     Column Row Layer    Maximum-Head-Change  Column Row Layer    Maximum-Flux-Residual          L2-NORM 
          0                 1           2             5    6     1       0.9918329022E-02       5    6    1         0.5385640352E+00      0.1525895616E+01
          0                 2           2             4    7     1      -0.2372616358E-01       5    6    1        -0.1298845871E+01      0.3157863456E+01
          0                 3           2             4    7     1       0.1615470840E-02       5    6    1         0.9090576666E-01      0.2210169637E+00
          0                 4           1             4    7     1      -0.6428110999E-04       5    6    1        -0.3717776799E-02      0.9039078541E-02

    ------------------------------------------------
       NWT REQUIRED            4 OUTER ITERATIONS 
       AND A TOTAL OF          7 INNER ITERATIONS.
    ------------------------------------------------

 NO OUTPUT CONTROL FOR STRESS PERIOD    6   TIME STEP   15
 
 SOLVING FOR HEAD 
                                                   Max.-Head-Change                         Max.-Flux-Residual
  Residual-Control   Outer-Iter.   Inner-Iter.     Column Row Layer    Maximum-Head-Change  Column Row Layer    Maximum-Flux-Residual          L2-NORM 
          0                 1           2             5    6     1       0.1014294991E-01       5    6    1         0.5507302468E+00      0.1530930336E+01
          0                 2           2             4    7     1      -0.2374411770E-01       5    6    1        -0.1300062489E+01      0.3160527191E+01
          0                 3           2             4    7     1       0.1616693453E-02       5    6    1         0.9099127948E-01      0.2212044526E+00
          0                 4           1             4    7     1      -0.6432975877E-04       5    6    1        -0.3721308135E-02      0.9046840742E-02

    ------------------------------------------------
       NWT REQUIRED            4 OUTER ITERATIONS 
       AND A TOTAL OF          7 INNER ITERATIONS.
    ------------------------------------------------

 NO OUTPUT CONTROL FOR STRESS PERIOD    6   TIME STEP   16
 
 SOLVING FOR HEAD 
                                                   Max.-Head-Change                         Max.-Flux-Residual
  Residual-Control   Outer-Iter.   Inner-Iter.     Column Row Layer    Maximum-Head-Change  Column Row Layer    Maximum-Flux-Residual          L2-NORM 
          0                 1           2             5    6     1       0.1035843664E-01       5    6    1         0.5623931927E+00      0.1538512126E+01
          0                 2           2             4    7     1      -0.2376205022E-01       5    6    1        -0.1301228780E+01      0.3163129599E+01
          0                 3           2             4    7     1       0.1617914592E-02       5    6    1         0.9107324749E-01      0.2213874674E+00
          0                 4           1             4    7     1      -0.6437834929E-04       5    6    1        -0.3724692400E-02      0.9054392741E-02

    ------------------------------------------------
       NWT REQUIRED            4 OUTER ITERATIONS 
       AND A TOTAL OF          7 INNER ITERATIONS.
    ------------------------------------------------

 NO OUTPUT CONTROL FOR STRESS PERIOD    6   TIME STEP   17
 
 SOLVING FOR HEAD 
                                                   Max.-Head-Change                         Max.-Flux-Residual
  Residual-Control   Outer-Iter.   Inner-Iter.     Column Row Layer    Maximum-Head-Change  Column Row Layer    Maximum-Flux-Residual          L2-NORM 
          0                 1           2             5    6     1       0.1056561141E-01       5    6    1         0.5735991290E+00      0.1548105860E+01
          0                 2           2             4    7     1      -0.2377989008E-01       5    6    1        -0.1302349370E+01      0.3165670801E+01
          0                 3           2             4    7     1       0.1619129422E-02       5    6    1         0.9115199764E-01      0.2215660930E+00
          0                 4           1             4    7     1      -0.6442668815E-04       5    6    1        -0.3727943196E-02      0.9061765668E-02

    ------------------------------------------------
       NWT REQUIRED            4 OUTER ITERATIONS 
       AND A TOTAL OF          7 INNER ITERATIONS.
    ------------------------------------------------

 NO OUTPUT CONTROL FOR STRESS PERIOD    6   TIME STEP   18
 
 SOLVING FOR HEAD 
                                                   Max.-Head-Change                         Max.-Flux-Residual
  Residual-Control   Outer-Iter.   Inner-Iter.     Column Row Layer    Maximum-Head-Change  Column Row Layer    Maximum-Flux-Residual          L2-NORM 
          0                 1           2             5    6     1       0.1076464777E-01       5    6    1         0.5843574961E+00      0.1559263619E+01
          0                 2           2             4    7     1      -0.2379770282E-01       5    6    1        -0.1303425203E+01      0.3168153612E+01
          0                 3           2             4    7     1       0.1620342404E-02       5    6    1         0.9122759659E-01      0.2217405775E+00
          0                 4           1             4    7     1      -0.6447495378E-04       5    6    1        -0.3731063351E-02      0.9068915890E-02

    ------------------------------------------------
       NWT REQUIRED            4 OUTER ITERATIONS 
       AND A TOTAL OF          7 INNER ITERATIONS.
    ------------------------------------------------

 NO OUTPUT CONTROL FOR STRESS PERIOD    6   TIME STEP   19
 
 SOLVING FOR HEAD 
                                                   Max.-Head-Change                         Max.-Flux-Residual
  Residual-Control   Outer-Iter.   Inner-Iter.     Column Row Layer    Maximum-Head-Change  Column Row Layer    Maximum-Flux-Residual          L2-NORM 
          0                 1           2             5    6     1       0.1095630727E-01       5    6    1         0.5947104816E+00      0.1571610611E+01
          0                 2           2             4    7     1      -0.2381539226E-01       5    6    1        -0.1304460498E+01      0.3170576947E+01
          0                 3           2             4    7     1       0.1621546988E-02       5    6    1         0.9130034066E-01      0.2219108241E+00
          0                 4           1             4    7     1      -0.6452288555E-04       5    6    1        -0.3734065077E-02      0.9075972022E-02

    ------------------------------------------------
       NWT REQUIRED            4 OUTER ITERATIONS 
       AND A TOTAL OF          7 INNER ITERATIONS.
    ------------------------------------------------

 NO OUTPUT CONTROL FOR STRESS PERIOD    6   TIME STEP   20
 
 SOLVING FOR HEAD 
                                                   Max.-Head-Change                         Max.-Flux-Residual
  Residual-Control   Outer-Iter.   Inner-Iter.     Column Row Layer    Maximum-Head-Change  Column Row Layer    Maximum-Flux-Residual          L2-NORM 
          0                 1           2             5    6     1       0.1114070217E-01       5    6    1         0.6046643834E+00      0.1584865567E+01
          0                 2           2             5    7     1      -0.2383312444E-01       5    6    1        -0.1305455885E+01      0.3172943311E+01
          0                 3           2             5    7     1       0.1622756323E-02       5    6    1         0.9137027497E-01      0.2220769571E+00
          0                 4           1             5    7     1      -0.6457109868E-04       5    6    1        -0.3736950327E-02      0.9082798890E-02

    ------------------------------------------------
       NWT REQUIRED            4 OUTER ITERATIONS 
       AND A TOTAL OF          7 INNER ITERATIONS.
    ------------------------------------------------

 NO OUTPUT CONTROL FOR STRESS PERIOD    6   TIME STEP   21
 
 SOLVING FOR HEAD 
                                                   Max.-Head-Change                         Max.-Flux-Residual
  Residual-Control   Outer-Iter.   Inner-Iter.     Column Row Layer    Maximum-Head-Change  Column Row Layer    Maximum-Flux-Residual          L2-NORM 
          0                 1           2             5    6     1       0.1131853689E-01       5    6    1         0.6142582092E+00      0.1598796920E+01
          0                 2           2             5    7     1      -0.2385117163E-01       5    6    1        -0.1306415264E+01      0.3175253676E+01
          0                 3           2             5    7     1       0.1623985269E-02       5    6    1         0.9143767289E-01      0.2222391172E+00
          0                 4           1             5    7     1      -0.6461999959E-04       5    6    1        -0.3739730295E-02      0.9089472214E-02

    ------------------------------------------------
       NWT REQUIRED            4 OUTER ITERATIONS 
       AND A TOTAL OF          7 INNER ITERATIONS.
    ------------------------------------------------

 NO OUTPUT CONTROL FOR STRESS PERIOD    6   TIME STEP   22
 
 SOLVING FOR HEAD 
                                                   Max.-Head-Change                         Max.-Flux-Residual
  Residual-Control   Outer-Iter.   Inner-Iter.     Column Row Layer    Maximum-Head-Change  Column Row Layer    Maximum-Flux-Residual          L2-NORM 
          0                 1           2             5    6     1       0.1148987148E-01       5    6    1         0.6234952965E+00      0.1613206768E+01
          0                 2           2             5    7     1      -0.2386882510E-01       5    6    1        -0.1307338969E+01      0.3177508922E+01
          0                 3           2             5    7     1       0.1625187403E-02       5    6    1         0.9150255930E-01      0.2223973894E+00
          0                 4           1             5    7     1      -0.6466783327E-04       5    6    1        -0.3742406139E-02      0.9095968718E-02

    ------------------------------------------------
       NWT REQUIRED            4 OUTER ITERATIONS 
       AND A TOTAL OF          7 INNER ITERATIONS.
    ------------------------------------------------

 NO OUTPUT CONTROL FOR STRESS PERIOD    6   TIME STEP   23
 
 SOLVING FOR HEAD 
                                                   Max.-Head-Change                         Max.-Flux-Residual
  Residual-Control   Outer-Iter.   Inner-Iter.     Column Row Layer    Maximum-Head-Change  Column Row Layer    Maximum-Flux-Residual          L2-NORM 
          0                 1           2             5    6     1       0.1165506171E-01       5    6    1         0.6323953521E+00      0.1627949908E+01
          0                 2           2             5    7     1      -0.2388606727E-01       5    6    1        -0.1308228971E+01      0.3179711870E+01
          0                 3           2             5    7     1       0.1626361530E-02       5    6    1         0.9156507303E-01      0.2225519644E+00
          0                 4           1             5    7     1      -0.6471455297E-04       5    6    1        -0.3744983630E-02      0.9102303886E-02

    ------------------------------------------------
       NWT REQUIRED            4 OUTER ITERATIONS 
       AND A TOTAL OF          7 INNER ITERATIONS.
    ------------------------------------------------

 NO OUTPUT CONTROL FOR STRESS PERIOD    6   TIME STEP   24
 
 SOLVING FOR HEAD 
                                                   Max.-Head-Change                         Max.-Flux-Residual
  Residual-Control   Outer-Iter.   Inner-Iter.     Column Row Layer    Maximum-Head-Change  Column Row Layer    Maximum-Flux-Residual          L2-NORM 
          0                 1           2             5    6     1       0.1181444019E-01       5    6    1         0.6409768224E+00      0.1642898617E+01
          0                 2           2             5    7     1      -0.2390290937E-01       5    6    1        -0.1309087115E+01      0.3181862324E+01
          0                 3           2             5    7     1       0.1627508413E-02       5    6    1         0.9162529929E-01      0.2227027661E+00
          0                 4           1             5    7     1      -0.6476018863E-04       5    6    1        -0.3747461936E-02      0.9108509707E-02

    ------------------------------------------------
       NWT REQUIRED            4 OUTER ITERATIONS 
       AND A TOTAL OF          7 INNER ITERATIONS.
    ------------------------------------------------

 NO OUTPUT CONTROL FOR STRESS PERIOD    6   TIME STEP   25
 
 SOLVING FOR HEAD 
                                                   Max.-Head-Change                         Max.-Flux-Residual
  Residual-Control   Outer-Iter.   Inner-Iter.     Column Row Layer    Maximum-Head-Change  Column Row Layer    Maximum-Flux-Residual          L2-NORM 
          0                 1           2             5    6     1       0.1196862055E-01       5    6    1         0.6492735456E+00      0.1657973498E+01
          0                 2           2             5    7     1      -0.2391939289E-01       5    6    1        -0.1309916784E+01      0.3183964438E+01
          0                 3           2             5    7     1       0.1628630879E-02       5    6    1         0.9168349344E-01      0.2228500832E+00
          0                 4           1             5    7     1      -0.6480485238E-04       5    6    1        -0.3749853423E-02      0.9114548378E-02

    ------------------------------------------------
       NWT REQUIRED            4 OUTER ITERATIONS 
       AND A TOTAL OF          7 INNER ITERATIONS.
    ------------------------------------------------

 NO OUTPUT CONTROL FOR STRESS PERIOD    6   TIME STEP   26
 
 SOLVING FOR HEAD 
                                                   Max.-Head-Change                         Max.-Flux-Residual
  Residual-Control   Outer-Iter.   Inner-Iter.     Column Row Layer    Maximum-Head-Change  Column Row Layer    Maximum-Flux-Residual          L2-NORM 
          0                 1           2             5    6     1       0.1211757225E-01       5    6    1         0.6572841524E+00      0.1673077479E+01
          0                 2           2             4    7     1      -0.2393593076E-01       5    6    1        -0.1310717842E+01      0.3186017235E+01
          0                 3           2             4    7     1       0.1629755190E-02       5    6    1         0.9173964455E-01      0.2229938915E+00
          0                 4           1             4    7     1      -0.6484949748E-04       5    6    1        -0.3752157404E-02      0.9120443910E-02

    ------------------------------------------------
       NWT REQUIRED            4 OUTER ITERATIONS 
       AND A TOTAL OF          7 INNER ITERATIONS.
    ------------------------------------------------

 NO OUTPUT CONTROL FOR STRESS PERIOD    6   TIME STEP   27
 
 SOLVING FOR HEAD 
                                                   Max.-Head-Change                         Max.-Flux-Residual
  Residual-Control   Outer-Iter.   Inner-Iter.     Column Row Layer    Maximum-Head-Change  Column Row Layer    Maximum-Flux-Residual          L2-NORM 
          0                 1           2             5    6     1       0.1226157549E-01       5    6    1         0.6650236528E+00      0.1688159876E+01
          0                 2           2             4    7     1      -0.2395257396E-01       5    6    1        -0.1311491788E+01      0.3188023535E+01
          0                 3           2             4    7     1       0.1630888525E-02       5    6    1         0.9179382112E-01      0.2231343868E+00
          0                 4           1             4    7     1      -0.6489459435E-04       5    6    1        -0.3754373218E-02      0.9126194058E-02

    ------------------------------------------------
       NWT REQUIRED            4 OUTER ITERATIONS 
       AND A TOTAL OF          7 INNER ITERATIONS.
    ------------------------------------------------

 NO OUTPUT CONTROL FOR STRESS PERIOD    6   TIME STEP   28
 
 SOLVING FOR HEAD 
                                                   Max.-Head-Change                         Max.-Flux-Residual
  Residual-Control   Outer-Iter.   Inner-Iter.     Column Row Layer    Maximum-Head-Change  Column Row Layer    Maximum-Flux-Residual          L2-NORM 
          0                 1           2             5    6     1       0.1240087667E-01       5    6    1         0.6725065745E+00      0.1703161509E+01
          0                 2           2             4    7     1      -0.2396901192E-01       5    6    1        -0.1312240077E+01      0.3189983118E+01
          0                 3           2             4    7     1       0.1632007884E-02       5    6    1         0.9184620163E-01      0.2232716004E+00
          0                 4           1             4    7     1      -0.6493913422E-04       5    6    1        -0.3756515590E-02      0.9131804704E-02

    ------------------------------------------------
       NWT REQUIRED            4 OUTER ITERATIONS 
       AND A TOTAL OF          7 INNER ITERATIONS.
    ------------------------------------------------

 NO OUTPUT CONTROL FOR STRESS PERIOD    6   TIME STEP   29
 
 SOLVING FOR HEAD 
                                                   Max.-Head-Change                         Max.-Flux-Residual
  Residual-Control   Outer-Iter.   Inner-Iter.     Column Row Layer    Maximum-Head-Change  Column Row Layer    Maximum-Flux-Residual          L2-NORM 
          0                 1           2             5    6     1       0.1253384872E-01       5    6    1         0.6797456943E+00      0.1703304900E+01
          0                 2           2             4    7     1      -0.2398529216E-01       5    6    1        -0.1312963981E+01      0.3191822272E+01
          0                 3           2             4    7     1       0.1633116502E-02       5    6    1         0.9189687580E-01      0.2234005806E+00
          0                 4           1             4    7     1      -0.6498324743E-04       5    6    1        -0.3758588165E-02      0.9137105475E-02

    ------------------------------------------------
       NWT REQUIRED            4 OUTER ITERATIONS 
       AND A TOTAL OF          7 INNER ITERATIONS.
    ------------------------------------------------

 NO OUTPUT CONTROL FOR STRESS PERIOD    6   TIME STEP   30



 STREAM LISTING     PERIOD      6   STEP       30

 LAYER ROW COL. STREAM  RCH.  FLOW INTO     FLOW TO   FLOW OUT OF   OVRLND.     DIRECT     STREAM       STREAM     STREAM     STREAM   STREAMBED  STREAMBED
                SEG.NO.  NO.  STRM. RCH.    AQUIFER    STRM. RCH.    RUNOFF     PRECIP       ET          HEAD       DEPTH      WIDTH   CONDCTNC.   GRADIENT

   1    1    1     1     1    9.2355E+01  4.5966E-01   9.1895E+01  0.000E+00  0.000E+00  0.000E+00  1.09482E+03  1.771E+00  2.141E+01  9.635E-02  1.590E+00
   1    2    2     1     2    9.1895E+01  7.1318E-01   9.1182E+01  0.000E+00  0.000E+00  0.000E+00  1.08983E+03  1.769E+00  2.136E+01  1.496E-01  1.590E+00
   1    3    3     1     3    9.1182E+01  6.0950E-01   9.0573E+01  0.000E+00  0.000E+00  0.000E+00  1.08418E+03  1.766E+00  2.131E+01  1.279E-01  1.589E+00
   1    3    4     1     4    9.0573E+01  5.6231E-01   9.0010E+01  0.000E+00  0.000E+00  0.000E+00  1.07917E+03  1.764E+00  2.127E+01  1.180E-01  1.588E+00
   1    4    5     2     1    8.8010E+01  4.3413E-01   8.7576E+01  0.000E+00  0.000E+00  0.000E+00  1.07450E+03  2.566E+00  1.200E+01  7.800E-02  1.855E+00
   1    5    6     2     2    8.7576E+01  3.3354E-01   8.7243E+01  0.000E+00  0.000E+00  0.000E+00  1.06907E+03  2.559E+00  1.200E+01  6.000E-02  1.853E+00
   1    6    6     2     3    8.7243E+01  3.3319E-01   8.6909E+01  0.000E+00  0.000E+00  0.000E+00  1.06435E+03  2.553E+00  1.200E+01  6.000E-02  1.851E+00
   1    7    6     2     4    8.6909E+01  3.3284E-01   8.6576E+01  0.000E+00  0.000E+00  0.000E+00  1.05962E+03  2.547E+00  1.200E+01  6.000E-02  1.849E+00
   1    8    6     2     5    8.6576E+01  3.3249E-01   8.6244E+01  0.000E+00  0.000E+00  0.000E+00  1.05490E+03  2.541E+00  1.200E+01  6.000E-02  1.847E+00
   1    3    5     3     1    2.0000E+00  2.8252E-01   1.7175E+00  0.000E+00  0.000E+00  0.000E+00  1.07555E+03  1.909E+00  9.636E+00  7.227E-02  1.955E+00
   1    3    6     3     2    1.7175E+00  2.4905E-01   1.4684E+00  0.000E+00  0.000E+00  0.000E+00  1.07264E+03  1.727E+00  8.909E+00  6.682E-02  1.864E+00
   1    3    7     3     3    1.4684E+00  1.9718E-01   1.2712E+00  0.000E+00  0.000E+00  0.000E+00  1.06987E+03  1.555E+00  8.218E+00  5.547E-02  1.777E+00
   1    4    8     3     4    1.2712E+00  2.2567E-01   1.0456E+00  0.000E+00  0.000E+00  0.000E+00  1.06682E+03  1.364E+00  7.455E+00  6.709E-02  1.682E+00
   1    5    8     3     5    1.0456E+00  1.5790E-01   8.8768E-01  0.000E+00  0.000E+00  0.000E+00  1.06362E+03  1.164E+00  6.655E+00  4.991E-02  1.582E+00
   1    6    8     3     6    8.8768E-01  5.5980E-02   8.3170E-01  0.000E+00  0.000E+00  0.000E+00  1.06158E+03  1.036E+00  6.145E+00  1.844E-02  1.518E+00
   1    5   10     4     1    1.0000E+01  9.0919E-02   9.9091E+00  0.000E+00  0.000E+00  0.000E+00  1.07836E+03  6.368E-01  1.000E+01  2.500E-02  1.212E+00
   1    5    9     4     2    9.9091E+00  1.8158E-01   9.7275E+00  0.000E+00  0.000E+00  0.000E+00  1.07154E+03  6.315E-01  1.000E+01  5.000E-02  1.211E+00
   1    6    8     4     3    9.7275E+00  1.2689E-01   9.6006E+00  0.000E+00  0.000E+00  0.000E+00  1.06381E+03  6.256E-01  1.000E+01  3.500E-02  1.209E+00
   1    6    8     5     1    1.0432E+01  2.2686E-01   1.0205E+01  0.000E+00  0.000E+00  0.000E+00  1.05868E+03  6.790E-01  1.542E+01  6.166E-02  1.226E+00
   1    7    7     5     2    1.0205E+01  2.7894E-01   9.9265E+00  0.000E+00  0.000E+00  0.000E+00  1.05417E+03  6.732E-01  1.519E+01  7.594E-02  1.224E+00
   1    8    7     5     3    9.9265E+00  1.9221E-01   9.7343E+00  0.000E+00  0.000E+00  0.000E+00  1.04992E+03  6.676E-01  1.497E+01  5.241E-02  1.223E+00
   1    8    6     5     4    9.7343E+00  1.3577E-01   9.5985E+00  0.000E+00  0.000E+00  0.000E+00  1.04691E+03  6.637E-01  1.482E+01  3.706E-02  1.221E+00
   1    9    6     6     1    9.5843E+01  3.4390E-01   9.5499E+01  0.000E+00  0.000E+00  0.000E+00  1.04546E+03  2.732E+00  1.200E+01  6.000E-02  1.911E+00
   1   10    7     6     2    9.5499E+01  3.4355E-01   9.5155E+01  0.000E+00  0.000E+00  0.000E+00  1.04091E+03  2.726E+00  1.200E+01  6.000E-02  1.909E+00
   1   11    7     6     3    9.5155E+01  3.4320E-01   9.4812E+01  0.000E+00  0.000E+00  0.000E+00  1.03636E+03  2.720E+00  1.200E+01  6.000E-02  1.907E+00
   1   12    7     6     4    9.4812E+01  3.4284E-01   9.4469E+01  0.000E+00  0.000E+00  0.000E+00  1.03180E+03  2.714E+00  1.200E+01  6.000E-02  1.905E+00
   1   13    7     6     5    9.4469E+01  3.3805E-02   9.4435E+01  0.000E+00  0.000E+00  0.000E+00  1.02862E+03  2.711E+00  1.200E+01  2.400E-02  4.695E-01
   1   14    9     7     1    1.5000E+02  1.3319E+00   1.4867E+02  0.000E+00  0.000E+00  0.000E+00  1.03987E+03  2.288E+00  5.529E+01  5.593E-01  7.938E-01
   1   13    8     7     2    1.4867E+02  1.8070E+00   1.4686E+02  0.000E+00  0.000E+00  0.000E+00  1.03478E+03  2.279E+00  5.526E+01  6.148E-01  9.797E-01
   1   13    7     7     3    1.4686E+02  1.3844E+00   1.4548E+02  0.000E+00  0.000E+00  0.000E+00  1.02969E+03  2.271E+00  5.522E+01  5.585E-01  8.263E-01
   1   13    6     8     1    2.3991E+02  1.1021E+00   2.3881E+02  0.000E+00  0.000E+00  0.000E+00  1.02523E+03  3.356E+00  4.867E+01  4.959E-01  7.407E-01
   1   13    5     8     2    2.3881E+02  2.5269E-01   2.3856E+02  0.000E+00  0.000E+00  0.000E+00  1.01898E+03  3.353E+00  4.862E+01  4.954E-01  1.700E-01
   1   13    4     8     3    2.3856E+02 -2.1548E+00   2.4071E+02  0.000E+00  0.000E+00  0.000E+00  1.01273E+03  3.358E+00  4.869E+01  4.962E+00 -1.448E-01
   1   13    3     8     4    2.4071E+02 -3.3590E+00   2.4407E+02  0.000E+00  0.000E+00  0.000E+00  1.00650E+03  3.372E+00  4.890E+01  4.983E+00 -2.247E-01
   1   13    2     8     5    2.4407E+02 -2.5225E+00   2.4659E+02  0.000E+00  0.000E+00  0.000E+00  1.00026E+03  3.388E+00  4.912E+01  5.005E+00 -1.680E-01
   1   13    1     8     6    2.4659E+02 -1.8906E+00   2.4848E+02  0.000E+00  0.000E+00  0.000E+00  9.95274E+02  3.399E+00  4.928E+01  3.013E+00 -2.091E-01





UNSATURATED ZONE PACKAGE VOLUMETRIC BUDGET FOR  TIME STEP    30 STRESS PERIOD    6
  ------------------------------------------------------------------------------



     CUMULATIVE VOLUMES      L**3       RATES FOR THIS TIME STEP      L**3/T
     ------------------                 ------------------------

           IN:                                      IN:
           ---                                      ---
        INFILTRATION =    40647712.6445          INFILTRATION =           8.3175

          OUT:                                     OUT:
          ----                                     ----
              UZF ET =    40573738.0719                UZF ET =           8.3175
        UZF RECHARGE =       73224.0000          UZF RECHARGE =       0.0000E+00

            IN - OUT =         750.5726              IN - OUT =       0.0000E+00

          STORAGE:                                 STORAGE:
          --------                                 --------
      STORAGE CHANGE =         750.5873        STORAGE CHANGE =      -7.7522E-14

 PERCENT DISCREPANCY IS DIFFERENCE BETWEEN IN-OUT MINUS CHANGE IN STORAGE
 DIVIDED BY THE AVERAGE OF IN AND OUT TIMES 100

 PERCENT DISCREPANCY =           0.00     PERCENT DISCREPANCY =           0.00






1
  VOLUMETRIC BUDGET FOR AGRICULTURAL FIELDS AT  END OF TIME STEP   30, STRESS PERIOD   6
  ------------------------------------------------------------------------------

     CUMULATIVE VOLUMES      L**3       RATES FOR THIS TIME STEP      L**3/T
     ------------------                 ------------------------

           IN:                                      IN:
           ---                                      ---
               AG WELLS  =    29429866.0000                 AG WELLS  =           7.4700
      DIVERSION SEGMENTS =           0.0000        DIVERSION SEGMENTS =           0.0000
       IRRIGATION PONDS  =           0.0000         IRRIGATION PONDS  =           0.0000
           GW IRRIGATION =           0.0000             GW IRRIGATION =           0.0000
           SW IRRIGATION =           0.0000             SW IRRIGATION =           0.0000
        SYSTEM LOSSES GW =           0.0000          SYSTEM LOSSES GW =           0.0000
        SYSTEM LOSSES SW =           0.0000          SYSTEM LOSSES SW =           0.0000

                TOTAL IN =    29429866.0000                  TOTAL IN =           7.4700

          OUT:                                     OUT:
          ----                                     ----
               AG WELLS  =           0.0000                 AG WELLS  =           0.0000
      DIVERSION SEGMENTS =           0.0000        DIVERSION SEGMENTS =           0.0000
       IRRIGATION PONDS  =           0.0000         IRRIGATION PONDS  =           0.0000
           GW IRRIGATION =    29429866.0000             GW IRRIGATION =           7.4700
           SW IRRIGATION =           0.0000             SW IRRIGATION =           0.0000
        SYSTEM LOSSES GW =           0.0000          SYSTEM LOSSES GW =           0.0000
        SYSTEM LOSSES SW =           0.0000          SYSTEM LOSSES SW =           0.0000

               TOTAL OUT =    29429866.0000                 TOTAL OUT =           7.4700

                IN - OUT =           0.0000                  IN - OUT =           0.0000

     PERCENT DISCREPANCY =           0.00         PERCENT DISCREPANCY =           0.00



1
  VOLUMETRIC BUDGET FOR ENTIRE MODEL AT END OF TIME STEP   30, STRESS PERIOD   6
  ------------------------------------------------------------------------------

     CUMULATIVE VOLUMES      L**3       RATES FOR THIS TIME STEP      L**3/T
     ------------------                 ------------------------

           IN:                                      IN:
           ---                                      ---
             STORAGE     =    36216064.0000               STORAGE     =           7.0075
       CONSTANT HEAD     =           0.0000         CONSTANT HEAD     =           0.0000
     HEAD DEP BOUNDS     =     3778269.5000       HEAD DEP BOUNDS     =           0.2855
      STREAM LEAKAGE     =   166669760.0000        STREAM LEAKAGE     =          13.7976
        UZF RECHARGE     =       73223.9531          UZF RECHARGE     =           0.0000
               GW ET     =           0.0000                 GW ET     =           0.0000
     SURFACE LEAKAGE     =           0.0000       SURFACE LEAKAGE     =           0.0000
           AG WELLS      =           0.0000             AG WELLS      =           0.0000

                TOTAL IN =   206737312.0000                  TOTAL IN =          21.0906

          OUT:                                     OUT:
          ----                                     ----
             STORAGE     =    36776536.0000               STORAGE     =           2.5503
       CONSTANT HEAD     =           0.0000         CONSTANT HEAD     =           0.0000
     HEAD DEP BOUNDS     =     3885197.7500       HEAD DEP BOUNDS     =           0.3003
      STREAM LEAKAGE     =   134604448.0000        STREAM LEAKAGE     =           9.9268
        UZF RECHARGE     =           0.0000          UZF RECHARGE     =           0.0000
               GW ET     =     2045264.2500                 GW ET     =           0.8429
     SURFACE LEAKAGE     =           0.0000       SURFACE LEAKAGE     =           0.0000
           AG WELLS      =    29429866.0000             AG WELLS      =           7.4700

               TOTAL OUT =   206741312.0000                 TOTAL OUT =          21.0903

                IN - OUT =       -4000.0000                  IN - OUT =       2.8610E-04

     PERCENT DISCREPANCY =          -0.00         PERCENT DISCREPANCY =           0.00






         TIME SUMMARY AT END OF TIME STEP   30 IN STRESS PERIOD    6
                    SECONDS     MINUTES      HOURS       DAYS        YEARS
                    -----------------------------------------------------------
   TIME STEP LENGTH  87667.      1461.1      24.352      1.0147     2.77799E-03
 STRESS PERIOD TIME 2.63000E+06  43833.      730.56      30.440     8.33397E-02
         TOTAL TIME 1.32364E+07 2.20607E+05  3676.8      153.20     0.41944    
1
1
                            STRESS PERIOD NO.    7, LENGTH =   2630000.    
                            -----------------------------------------------

                              NUMBER OF TIME STEPS =    30

                               MULTIPLIER FOR DELT =     1.000

                            INITIAL TIME STEP SIZE =   87666.66    

 REUSING NON-PARAMETER GHB CELLS FROM LAST STRESS PERIOD

      2 GHB CELLS

 REUSING STREAM SEGMENT DATA FROM LAST STRESS PERIOD



            AREAL INFILTRATION RATE
 READING ON UNIT   19 WITH FORMAT: (FREE)              

            1           2           3           4           5           6           7           8           9          10
 ........................................................................................................................
   1   1.0000E-10  2.0000E-10   0.000       0.000       0.000       0.000       0.000       0.000       0.000       0.000    
   2   2.0000E-10  1.0000E-10  2.0000E-10   0.000       0.000      8.0000E-10  8.0000E-10  5.0000E-10   0.000       0.000    
   3    0.000      5.0000E-10  1.0000E-10  1.0000E-10  8.0000E-10  8.0000E-10  5.0000E-10  5.0000E-10   0.000       0.000    
   4   8.0000E-10  5.0000E-10  1.0000E-10  1.0000E-10  1.0000E-10  1.0000E-10  1.0000E-10  1.0000E-10  2.0000E-10   0.000    
   5   8.0000E-10  5.0000E-10  1.0000E-10  1.0000E-10  1.0000E-10  1.0000E-10  1.0000E-10  1.0000E-10  1.0000E-10  1.0000E-10
   6   8.0000E-10  5.0000E-10  5.0000E-10  2.0000E-10  2.0000E-10  1.0000E-10  1.0000E-10  1.0000E-10  1.0000E-10  5.0000E-10
   7   8.0000E-10  5.0000E-10  5.0000E-10  2.0000E-10  2.0000E-10  1.0000E-10  1.0000E-10  2.0000E-10  2.0000E-10   0.000    
   8    0.000      5.0000E-10  5.0000E-10  2.0000E-10  2.0000E-10  1.0000E-10  1.0000E-10  2.0000E-10  5.0000E-10   0.000    
   9    0.000      5.0000E-10  5.0000E-10  2.0000E-10  2.0000E-10  1.0000E-10  1.0000E-10  2.0000E-10  5.0000E-10   0.000    
  10    0.000      5.0000E-10  5.0000E-10  2.0000E-10  2.0000E-10  1.0000E-10  1.0000E-10  2.0000E-10  5.0000E-10  8.0000E-10
  11    0.000      1.0000E-10  1.0000E-10  1.0000E-10  1.0000E-10  1.0000E-10  1.0000E-10  2.0000E-10  5.0000E-10   0.000    
  12   1.0000E-10  1.0000E-10  1.0000E-10  1.0000E-10  1.0000E-10  1.0000E-10  1.0000E-10  1.0000E-10  2.0000E-10   0.000    
  13   1.0000E-10  1.0000E-10  2.0000E-10  2.0000E-10  2.0000E-10  2.0000E-10  2.0000E-10  1.0000E-10  1.0000E-10   0.000    
  14    0.000      2.0000E-10  5.0000E-10  5.0000E-10  5.0000E-10  5.0000E-10  5.0000E-10  2.0000E-10  1.0000E-10   0.000    
  15    0.000       0.000      8.0000E-10  8.0000E-10  8.0000E-10  8.0000E-10   0.000       0.000       0.000       0.000    

                  ET RATE =  1.500000E-07

 USING ET EXTINCTION DEPTH FROM PREVIOUS STRESS PERIOD. CURRENT PERIOD IS:       7

 USING EXTINCTION WATER CONTENT FROM PREVIOUS STRESS PERIOD. CURRENT PERIOD IS:       7

 USING AIR ENTRY PRESSURE FROM PREVIOUS STRESS PERIOD. CURRENT PERIOD IS:       7

 USING ROOT PRESSURE HEAD FROM PREVIOUS STRESS PERIOD. CURRENT PERIOD IS:       7

 USING ROOT ACTIVITY FROM PREVIOUS STRESS PERIOD. CURRENT PERIOD IS:       7

 PROCESSING AG STRESS PERIOD DATA

 READING AG STRESS PERIOD DATA

 READING IRRIGATION WELL

 NO IRRPOND OR REUSING IRRPOND DATA FROM LAST STRESS PERIOD

 END PROCESSING AG STRESS PERIOD DATA OPTIONS
 
 SOLVING FOR HEAD 
                                                   Max.-Head-Change                         Max.-Flux-Residual
  Residual-Control   Outer-Iter.   Inner-Iter.     Column Row Layer    Maximum-Head-Change  Column Row Layer    Maximum-Flux-Residual          L2-NORM 
          0                 1           2             4    7     1      -0.6352013218E-01       4    7    1        -0.3321243773E+01      0.7976741833E+01
          0                 2           2             4    7     1       0.6178732644E-02       4    7    1         0.3321215917E+00      0.7970776307E+00
          0                 3           2             4    7     1      -0.4207491751E-03       4    7    1        -0.2324854558E-01      0.5574262537E-01
          0                 4           1             4    7     1       0.1674200163E-04       4    7    1         0.9508667295E-03      0.2276611042E-02

    ------------------------------------------------
       NWT REQUIRED            4 OUTER ITERATIONS 
       AND A TOTAL OF          7 INNER ITERATIONS.
    ------------------------------------------------

 NO OUTPUT CONTROL FOR STRESS PERIOD    7   TIME STEP    1
 
 SOLVING FOR HEAD 
                                                   Max.-Head-Change                         Max.-Flux-Residual
  Residual-Control   Outer-Iter.   Inner-Iter.     Column Row Layer    Maximum-Head-Change  Column Row Layer    Maximum-Flux-Residual          L2-NORM 
          0                 1           2             3   13     1      -0.1411959934E-01       4   13    1        -0.9081581484E+00      0.2263257687E+01
          0                 2           2             4    7     1      -0.7061652595E-01       5    6    1        -0.3821383128E+01      0.9330618078E+01
          0                 3           2             4    7     1       0.4808691210E-02       5    6    1         0.2674685839E+00      0.6530797582E+00
          0                 4           2             4    7     1      -0.1913424554E-03       5    6    1        -0.1093689264E-01      0.2670744772E-01
          0                 5           1             4    7     1       0.2359335331E-05       5    6    1         0.1384279644E-03      0.3386258430E-03

    ------------------------------------------------
       NWT REQUIRED            5 OUTER ITERATIONS 
       AND A TOTAL OF          9 INNER ITERATIONS.
    ------------------------------------------------

 NO OUTPUT CONTROL FOR STRESS PERIOD    7   TIME STEP    2
 
 SOLVING FOR HEAD 
                                                   Max.-Head-Change                         Max.-Flux-Residual
  Residual-Control   Outer-Iter.   Inner-Iter.     Column Row Layer    Maximum-Head-Change  Column Row Layer    Maximum-Flux-Residual          L2-NORM 
          0                 1           2             5    6     1       0.1540870151E-01       5    6    1         0.8373447538E+00      0.2264110865E+01
          0                 2           2             4    7     1      -0.7065902642E-01       5    6    1        -0.3828707840E+01      0.9343212064E+01
          0                 3           2             4    7     1       0.4811110320E-02       5    6    1         0.2679579347E+00      0.6539018071E+00
          0                 4           2             4    7     1      -0.1914387124E-03       5    6    1        -0.1095718361E-01      0.2674122801E-01
          0                 5           1             4    7     1       0.2360521792E-05       5    6    1         0.1387039079E-03      0.3389830000E-03

    ------------------------------------------------
       NWT REQUIRED            5 OUTER ITERATIONS 
       AND A TOTAL OF          9 INNER ITERATIONS.
    ------------------------------------------------

 NO OUTPUT CONTROL FOR STRESS PERIOD    7   TIME STEP    3
 
 SOLVING FOR HEAD 
                                                   Max.-Head-Change                         Max.-Flux-Residual
  Residual-Control   Outer-Iter.   Inner-Iter.     Column Row Layer    Maximum-Head-Change  Column Row Layer    Maximum-Flux-Residual          L2-NORM 
          0                 1           2             5    6     1       0.1667753115E-01       5    6    1         0.9068157486E+00      0.2314945621E+01
          0                 2           2             4    7     1      -0.7070305205E-01       5    6    1        -0.3835654904E+01      0.9355492511E+01
          0                 3           2             4    7     1       0.4814108563E-02       5    6    1         0.2684468865E+00      0.6547659667E+00
          0                 4           2             4    7     1      -0.1915580139E-03       5    6    1        -0.1097743947E-01      0.2677673700E-01
          0                 5           1             4    7     1       0.2361992995E-05       5    6    1         0.1389780937E-03      0.3393619519E-03

    ------------------------------------------------
       NWT REQUIRED            5 OUTER ITERATIONS 
       AND A TOTAL OF          9 INNER ITERATIONS.
    ------------------------------------------------

 NO OUTPUT CONTROL FOR STRESS PERIOD    7   TIME STEP    4
 
 SOLVING FOR HEAD 
                                                   Max.-Head-Change                         Max.-Flux-Residual
  Residual-Control   Outer-Iter.   Inner-Iter.     Column Row Layer    Maximum-Head-Change  Column Row Layer    Maximum-Flux-Residual          L2-NORM 
          0                 1           2             5    6     1       0.1788309123E-01       5    6    1         0.9727688319E+00      0.2396775748E+01
          0                 2           2             4    7     1      -0.7074844076E-01       5    6    1        -0.3842250175E+01      0.9367438975E+01
          0                 3           2             4    7     1       0.4817199604E-02       5    6    1         0.2689110381E+00      0.6556067745E+00
          0                 4           2             4    7     1      -0.1916810082E-03       5    6    1        -0.1099666404E-01      0.2681135563E-01
          0                 5           1             4    7     1       0.2363509676E-05       5    6    1         0.1392380864E-03      0.3397589743E-03

    ------------------------------------------------
       NWT REQUIRED            5 OUTER ITERATIONS 
       AND A TOTAL OF          9 INNER ITERATIONS.
    ------------------------------------------------

 OUTPUT CONTROL FOR STRESS PERIOD    7   TIME STEP    5
    PRINT BUDGET
    SAVE BUDGET
 UBDSV1 SAVING "         STORAGE" ON UNIT 102 AT TIME STEP 5, STRESS PERIOD 7
 UBDSV2 SAVING "   CONSTANT HEAD" ON UNIT 102 AT TIME STEP 5, STRESS PERIOD 7
 UBDSV1 SAVING "FLOW RIGHT FACE " ON UNIT 102 AT TIME STEP 5, STRESS PERIOD 7
 UBDSV1 SAVING "FLOW FRONT FACE " ON UNIT 102 AT TIME STEP 5, STRESS PERIOD 7

  HEAD DEP BOUNDS   PERIOD    7   STEP     5
 BOUNDARY      1   LAYER   1   ROW    13   COL     1   RATE   -0.300147    
 BOUNDARY      2   LAYER   1   ROW    14   COL     9   RATE    0.285491    



 STREAM LISTING     PERIOD      7   STEP        5

 LAYER ROW COL. STREAM  RCH.  FLOW INTO     FLOW TO   FLOW OUT OF   OVRLND.     DIRECT     STREAM       STREAM     STREAM     STREAM   STREAMBED  STREAMBED
                SEG.NO.  NO.  STRM. RCH.    AQUIFER    STRM. RCH.    RUNOFF     PRECIP       ET          HEAD       DEPTH      WIDTH   CONDCTNC.   GRADIENT

   1    1    1     1     1    8.3000E+01  4.4019E-01   8.2560E+01  0.000E+00  0.000E+00  0.000E+00  1.09478E+03  1.734E+00  2.066E+01  9.299E-02  1.578E+00
   1    2    2     1     2    8.2560E+01  6.8286E-01   8.1877E+01  0.000E+00  0.000E+00  0.000E+00  1.08979E+03  1.731E+00  2.062E+01  1.443E-01  1.577E+00
   1    3    3     1     3    8.1877E+01  5.8349E-01   8.1294E+01  0.000E+00  0.000E+00  0.000E+00  1.08415E+03  1.729E+00  2.057E+01  1.234E-01  1.576E+00
   1    3    4     1     4    8.1294E+01  5.3822E-01   8.0756E+01  0.000E+00  0.000E+00  0.000E+00  1.07913E+03  1.726E+00  2.052E+01  1.139E-01  1.575E+00
   1    4    5     2     1    7.8756E+01  4.2120E-01   7.8334E+01  0.000E+00  0.000E+00  0.000E+00  1.07433E+03  2.400E+00  1.200E+01  7.800E-02  1.800E+00
   1    5    6     2     2    7.8334E+01  3.2359E-01   7.8011E+01  0.000E+00  0.000E+00  0.000E+00  1.06890E+03  2.393E+00  1.200E+01  6.000E-02  1.798E+00
   1    6    6     2     3    7.8011E+01  3.2323E-01   7.7688E+01  0.000E+00  0.000E+00  0.000E+00  1.06418E+03  2.387E+00  1.200E+01  6.000E-02  1.796E+00
   1    7    6     2     4    7.7688E+01  3.2288E-01   7.7365E+01  0.000E+00  0.000E+00  0.000E+00  1.05946E+03  2.381E+00  1.200E+01  6.000E-02  1.794E+00
   1    8    6     2     5    7.7365E+01  3.2252E-01   7.7042E+01  0.000E+00  0.000E+00  0.000E+00  1.05473E+03  2.375E+00  1.200E+01  6.000E-02  1.792E+00
   1    3    5     3     1    2.0000E+00  2.8252E-01   1.7175E+00  0.000E+00  0.000E+00  0.000E+00  1.07555E+03  1.909E+00  9.636E+00  7.227E-02  1.955E+00
   1    3    6     3     2    1.7175E+00  2.4905E-01   1.4684E+00  0.000E+00  0.000E+00  0.000E+00  1.07264E+03  1.727E+00  8.909E+00  6.682E-02  1.864E+00
   1    3    7     3     3    1.4684E+00  1.9718E-01   1.2712E+00  0.000E+00  0.000E+00  0.000E+00  1.06987E+03  1.555E+00  8.218E+00  5.547E-02  1.777E+00
   1    4    8     3     4    1.2712E+00  2.2567E-01   1.0456E+00  0.000E+00  0.000E+00  0.000E+00  1.06682E+03  1.364E+00  7.455E+00  6.709E-02  1.682E+00
   1    5    8     3     5    1.0456E+00  1.5790E-01   8.8768E-01  0.000E+00  0.000E+00  0.000E+00  1.06362E+03  1.164E+00  6.655E+00  4.991E-02  1.582E+00
   1    6    8     3     6    8.8768E-01  5.5980E-02   8.3170E-01  0.000E+00  0.000E+00  0.000E+00  1.06158E+03  1.036E+00  6.145E+00  1.844E-02  1.518E+00
   1    5   10     4     1    1.0000E+01  9.0919E-02   9.9091E+00  0.000E+00  0.000E+00  0.000E+00  1.07836E+03  6.368E-01  1.000E+01  2.500E-02  1.212E+00
   1    5    9     4     2    9.9091E+00  1.8158E-01   9.7275E+00  0.000E+00  0.000E+00  0.000E+00  1.07154E+03  6.315E-01  1.000E+01  5.000E-02  1.211E+00
   1    6    8     4     3    9.7275E+00  1.2689E-01   9.6006E+00  0.000E+00  0.000E+00  0.000E+00  1.06381E+03  6.256E-01  1.000E+01  3.500E-02  1.209E+00
   1    6    8     5     1    1.0432E+01  2.2686E-01   1.0205E+01  0.000E+00  0.000E+00  0.000E+00  1.05868E+03  6.790E-01  1.542E+01  6.166E-02  1.226E+00
   1    7    7     5     2    1.0205E+01  2.7894E-01   9.9265E+00  0.000E+00  0.000E+00  0.000E+00  1.05417E+03  6.732E-01  1.519E+01  7.594E-02  1.224E+00
   1    8    7     5     3    9.9265E+00  1.9221E-01   9.7343E+00  0.000E+00  0.000E+00  0.000E+00  1.04992E+03  6.676E-01  1.497E+01  5.241E-02  1.223E+00
   1    8    6     5     4    9.7343E+00  1.3577E-01   9.5985E+00  0.000E+00  0.000E+00  0.000E+00  1.04691E+03  6.637E-01  1.482E+01  3.706E-02  1.221E+00
   1    9    6     6     1    8.6641E+01  3.3426E-01   8.6306E+01  0.000E+00  0.000E+00  0.000E+00  1.04530E+03  2.571E+00  1.200E+01  6.000E-02  1.857E+00
   1   10    7     6     2    8.6306E+01  3.3390E-01   8.5973E+01  0.000E+00  0.000E+00  0.000E+00  1.04075E+03  2.565E+00  1.200E+01  6.000E-02  1.855E+00
   1   11    7     6     3    8.5973E+01  3.3354E-01   8.5639E+01  0.000E+00  0.000E+00  0.000E+00  1.03620E+03  2.559E+00  1.200E+01  6.000E-02  1.853E+00
   1   12    7     6     4    8.5639E+01  3.3319E-01   8.5306E+01  0.000E+00  0.000E+00  0.000E+00  1.03164E+03  2.553E+00  1.200E+01  6.000E-02  1.851E+00
   1   13    7     6     5    8.5306E+01  2.9844E-02   8.5276E+01  0.000E+00  0.000E+00  0.000E+00  1.02846E+03  2.550E+00  1.200E+01  2.400E-02  4.145E-01
   1   14    9     7     1    1.5000E+02  1.3319E+00   1.4867E+02  0.000E+00  0.000E+00  0.000E+00  1.03987E+03  2.288E+00  5.529E+01  5.593E-01  7.938E-01
   1   13    8     7     2    1.4867E+02  1.8062E+00   1.4686E+02  0.000E+00  0.000E+00  0.000E+00  1.03478E+03  2.279E+00  5.526E+01  6.148E-01  9.793E-01
   1   13    7     7     3    1.4686E+02  1.3821E+00   1.4548E+02  0.000E+00  0.000E+00  0.000E+00  1.02969E+03  2.271E+00  5.522E+01  5.585E-01  8.249E-01
   1   13    6     8     1    2.3076E+02  1.0601E+00   2.2970E+02  0.000E+00  0.000E+00  0.000E+00  1.02518E+03  3.308E+00  4.796E+01  4.888E-01  7.230E-01
   1   13    5     8     2    2.2970E+02  2.2370E-01   2.2947E+02  0.000E+00  0.000E+00  0.000E+00  1.01893E+03  3.304E+00  4.791E+01  4.882E-01  1.527E-01
   1   13    4     8     3    2.2947E+02 -2.0979E+00   2.3157E+02  0.000E+00  0.000E+00  0.000E+00  1.01268E+03  3.309E+00  4.799E+01  4.890E+00 -1.430E-01
   1   13    3     8     4    2.3157E+02 -3.2813E+00   2.3485E+02  0.000E+00  0.000E+00  0.000E+00  1.00645E+03  3.324E+00  4.819E+01  4.911E+00 -2.227E-01
   1   13    2     8     5    2.3485E+02 -2.6428E+00   2.3749E+02  0.000E+00  0.000E+00  0.000E+00  1.00021E+03  3.340E+00  4.842E+01  4.935E+00 -1.785E-01
   1   13    1     8     6    2.3749E+02 -1.9963E+00   2.3949E+02  0.000E+00  0.000E+00  0.000E+00  9.95227E+02  3.352E+00  4.860E+01  2.972E+00 -2.239E-01



 UBDSV3 SAVING "           GW ET" ON UNIT  61 AT TIME STEP 5, STRESS PERIOD 7
 UBDSV3 SAVING "    UZF RECHARGE" ON UNIT  61 AT TIME STEP 5, STRESS PERIOD 7
 UBDSV3 SAVING " SURFACE LEAKAGE" ON UNIT  61 AT TIME STEP 5, STRESS PERIOD 7
 UBDSV3 SAVING "       HORT+DUNN" ON UNIT  61 AT TIME STEP 5, STRESS PERIOD 7
 UBDSV3 SAVING "  STORAGE CHANGE" ON UNIT  61 AT TIME STEP 5, STRESS PERIOD 7


UNSATURATED ZONE PACKAGE VOLUMETRIC BUDGET FOR  TIME STEP     5 STRESS PERIOD    7
  ------------------------------------------------------------------------------



     CUMULATIVE VOLUMES      L**3       RATES FOR THIS TIME STEP      L**3/T
     ------------------                 ------------------------

           IN:                                      IN:
           ---                                      ---
        INFILTRATION =    50871166.4989          INFILTRATION =          23.3175

          OUT:                                     OUT:
          ----                                     ----
              UZF ET =    50794575.5513                UZF ET =          23.3175
        UZF RECHARGE =       73224.0000          UZF RECHARGE =       0.0000E+00

            IN - OUT =        3366.9476              IN - OUT =       0.0000E+00

          STORAGE:                                 STORAGE:
          --------                                 --------
      STORAGE CHANGE =        3366.9921        STORAGE CHANGE =       3.3425E-12

 PERCENT DISCREPANCY IS DIFFERENCE BETWEEN IN-OUT MINUS CHANGE IN STORAGE
 DIVIDED BY THE AVERAGE OF IN AND OUT TIMES 100

 PERCENT DISCREPANCY =           0.00     PERCENT DISCREPANCY =           0.00






 

            AG WELLS      PERIOD    7   STEP   5
 AG WELL      1   LAYER   1   ROW     6   COL     4   RATE    -3.74500    
 AG WELL      2   LAYER   1   ROW     6   COL     5   RATE    -3.74500    
 AG WELL      3   LAYER   1   ROW     7   COL     4   RATE    -3.74500    
 AG WELL      4   LAYER   1   ROW     7   COL     5   RATE    -3.74500    
 AG WELL      5   LAYER   1   ROW     8   COL     4   RATE    -3.74500    
 AG WELL      6   LAYER   1   ROW     8   COL     5   RATE    -3.74500    
 
 

        GW IRRIGATION     PERIOD    7   STEP   5
 AG WELL      1   ROW     6   COL     4   RATE     3.74500    
 AG WELL      2   ROW     6   COL     5   RATE     3.74500    
 AG WELL      3   ROW     7   COL     4   RATE     3.74500    
 AG WELL      4   ROW     7   COL     5   RATE     3.74500    
 AG WELL      5   ROW     8   COL     4   RATE     3.74500    
 AG WELL      6   ROW     8   COL     5   RATE     3.74500    
 
1
  VOLUMETRIC BUDGET FOR AGRICULTURAL FIELDS AT  END OF TIME STEP    5, STRESS PERIOD   7
  ------------------------------------------------------------------------------

     CUMULATIVE VOLUMES      L**3       RATES FOR THIS TIME STEP      L**3/T
     ------------------                 ------------------------

           IN:                                      IN:
           ---                                      ---
               AG WELLS  =    39281832.0000                 AG WELLS  =          22.4700
      DIVERSION SEGMENTS =           0.0000        DIVERSION SEGMENTS =           0.0000
       IRRIGATION PONDS  =           0.0000         IRRIGATION PONDS  =           0.0000
           GW IRRIGATION =           0.0000             GW IRRIGATION =           0.0000
           SW IRRIGATION =           0.0000             SW IRRIGATION =           0.0000
        SYSTEM LOSSES GW =           0.0000          SYSTEM LOSSES GW =           0.0000
        SYSTEM LOSSES SW =           0.0000          SYSTEM LOSSES SW =           0.0000

                TOTAL IN =    39281832.0000                  TOTAL IN =          22.4700

          OUT:                                     OUT:
          ----                                     ----
               AG WELLS  =           0.0000                 AG WELLS  =           0.0000
      DIVERSION SEGMENTS =           0.0000        DIVERSION SEGMENTS =           0.0000
       IRRIGATION PONDS  =           0.0000         IRRIGATION PONDS  =           0.0000
           GW IRRIGATION =    39281832.0000             GW IRRIGATION =          22.4700
           SW IRRIGATION =           0.0000             SW IRRIGATION =           0.0000
        SYSTEM LOSSES GW =           0.0000          SYSTEM LOSSES GW =           0.0000
        SYSTEM LOSSES SW =           0.0000          SYSTEM LOSSES SW =           0.0000

               TOTAL OUT =    39281832.0000                 TOTAL OUT =          22.4700

                IN - OUT =           0.0000                  IN - OUT =           0.0000

     PERCENT DISCREPANCY =           0.00         PERCENT DISCREPANCY =           0.00



1
  VOLUMETRIC BUDGET FOR ENTIRE MODEL AT END OF TIME STEP    5, STRESS PERIOD   7
  ------------------------------------------------------------------------------

     CUMULATIVE VOLUMES      L**3       RATES FOR THIS TIME STEP      L**3/T
     ------------------                 ------------------------

           IN:                                      IN:
           ---                                      ---
             STORAGE     =    46422208.0000               STORAGE     =          22.7606
       CONSTANT HEAD     =           0.0000         CONSTANT HEAD     =           0.0000
     HEAD DEP BOUNDS     =     3903409.5000       HEAD DEP BOUNDS     =           0.2855
      STREAM LEAKAGE     =   172600848.0000        STREAM LEAKAGE     =          13.5284
        UZF RECHARGE     =       73223.9531          UZF RECHARGE     =           0.0000
               GW ET     =           0.0000                 GW ET     =           0.0000
     SURFACE LEAKAGE     =           0.0000       SURFACE LEAKAGE     =           0.0000
           AG WELLS      =           0.0000             AG WELLS      =           0.0000

                TOTAL IN =   222999680.0000                  TOTAL IN =          36.5744

          OUT:                                     OUT:
          ----                                     ----
             STORAGE     =    37711844.0000               STORAGE     =           2.0611
       CONSTANT HEAD     =           0.0000         CONSTANT HEAD     =           0.0000
     HEAD DEP BOUNDS     =     4016781.0000       HEAD DEP BOUNDS     =           0.3001
      STREAM LEAKAGE     =   139079728.0000        STREAM LEAKAGE     =          10.0183
        UZF RECHARGE     =           0.0000          UZF RECHARGE     =           0.0000
               GW ET     =     2913524.2500                 GW ET     =           1.7249
     SURFACE LEAKAGE     =           0.0000       SURFACE LEAKAGE     =           0.0000
           AG WELLS      =    39281832.0000             AG WELLS      =          22.4700

               TOTAL OUT =   223003712.0000                 TOTAL OUT =          36.5744

                IN - OUT =       -4032.0000                  IN - OUT =       1.5259E-05

     PERCENT DISCREPANCY =          -0.00         PERCENT DISCREPANCY =           0.00






         TIME SUMMARY AT END OF TIME STEP    5 IN STRESS PERIOD    7
                    SECONDS     MINUTES      HOURS       DAYS        YEARS
                    -----------------------------------------------------------
   TIME STEP LENGTH  87667.      1461.1      24.352      1.0147     2.77799E-03
 STRESS PERIOD TIME 4.38333E+05  7305.6      121.76      5.0733     1.38899E-02
         TOTAL TIME 1.36747E+07 2.27912E+05  3798.5      158.27     0.43333    
1
 
 SOLVING FOR HEAD 
                                                   Max.-Head-Change                         Max.-Flux-Residual
  Residual-Control   Outer-Iter.   Inner-Iter.     Column Row Layer    Maximum-Head-Change  Column Row Layer    Maximum-Flux-Residual          L2-NORM 
          0                 1           2             5    6     1       0.1902931317E-01       5    8    1         0.1035832025E+01      0.2496472069E+01
          0                 2           2             4    7     1      -0.7079506286E-01       5    8    1        -0.3848557750E+01      0.9379046672E+01
          0                 3           2             4    7     1       0.4820374612E-02       5    6    1         0.2693519453E+00      0.6564238257E+00
          0                 4           2             4    7     1      -0.1918073434E-03       5    6    1        -0.1101492190E-01      0.2684505242E-01
          0                 5           1             4    7     1       0.2365067802E-05       5    6    1         0.1394847322E-03      0.3401649447E-03

    ------------------------------------------------
       NWT REQUIRED            5 OUTER ITERATIONS 
       AND A TOTAL OF          9 INNER ITERATIONS.
    ------------------------------------------------

 NO OUTPUT CONTROL FOR STRESS PERIOD    7   TIME STEP    6
 
 SOLVING FOR HEAD 
                                                   Max.-Head-Change                         Max.-Flux-Residual
  Residual-Control   Outer-Iter.   Inner-Iter.     Column Row Layer    Maximum-Head-Change  Column Row Layer    Maximum-Flux-Residual          L2-NORM 
          0                 1           2             5    6     1       0.2011981481E-01       5    8    1         0.1096015536E+01      0.2605503847E+01
          0                 2           2             4    7     1      -0.7084274320E-01       5    8    1        -0.3854576224E+01      0.9390313344E+01
          0                 3           2             4    7     1       0.4823621662E-02       5    6    1         0.2697710487E+00      0.6572170120E+00
          0                 4           2             4    7     1      -0.1919365463E-03       5    6    1        -0.1103227339E-01      0.2687780846E-01
          0                 5           1             4    7     1       0.2366661101E-05       5    6    1         0.1397188721E-03      0.3405569359E-03

    ------------------------------------------------
       NWT REQUIRED            5 OUTER ITERATIONS 
       AND A TOTAL OF          9 INNER ITERATIONS.
    ------------------------------------------------

 NO OUTPUT CONTROL FOR STRESS PERIOD    7   TIME STEP    7
 
 SOLVING FOR HEAD 
                                                   Max.-Head-Change                         Max.-Flux-Residual
  Residual-Control   Outer-Iter.   Inner-Iter.     Column Row Layer    Maximum-Head-Change  Column Row Layer    Maximum-Flux-Residual          L2-NORM 
          0                 1           2             5    6     1       0.2115855165E-01       5    8    1         0.1153181162E+01      0.2718581127E+01
          0                 2           2             4    7     1      -0.7089137128E-01       5    8    1        -0.3860292908E+01      0.9401248060E+01
          0                 3           2             4    7     1       0.4826933230E-02       5    8    1         0.2701703590E+00      0.6579869764E+00
          0                 4           2             4    7     1      -0.1920683151E-03       5    8    1        -0.1104879888E-01      0.2690964281E-01
          0                 5           1             4    7     1       0.2368285316E-05       5    6    1         0.1399414500E-03      0.3409570682E-03

    ------------------------------------------------
       NWT REQUIRED            5 OUTER ITERATIONS 
       AND A TOTAL OF          9 INNER ITERATIONS.
    ------------------------------------------------

 NO OUTPUT CONTROL FOR STRESS PERIOD    7   TIME STEP    8
 
 SOLVING FOR HEAD 
                                                   Max.-Head-Change                         Max.-Flux-Residual
  Residual-Control   Outer-Iter.   Inner-Iter.     Column Row Layer    Maximum-Head-Change  Column Row Layer    Maximum-Flux-Residual          L2-NORM 
          0                 1           2             5    6     1       0.2214828844E-01       5    8    1         0.1207504215E+01      0.2832469582E+01
          0                 2           2             4    7     1      -0.7094081762E-01       5    8    1        -0.3865725334E+01      0.9411857434E+01
          0                 3           2             4    7     1       0.4830300499E-02       5    8    1         0.2705525306E+00      0.6587341667E+00
          0                 4           2             4    7     1      -0.1922023013E-03       5    8    1        -0.1106461796E-01      0.2694057147E-01
          0                 5           1             4    7     1       0.2369937535E-05       5    6    1         0.1401530453E-03      0.3413495241E-03

    ------------------------------------------------
       NWT REQUIRED            5 OUTER ITERATIONS 
       AND A TOTAL OF          9 INNER ITERATIONS.
    ------------------------------------------------

 NO OUTPUT CONTROL FOR STRESS PERIOD    7   TIME STEP    9
 
 SOLVING FOR HEAD 
                                                   Max.-Head-Change                         Max.-Flux-Residual
  Residual-Control   Outer-Iter.   Inner-Iter.     Column Row Layer    Maximum-Head-Change  Column Row Layer    Maximum-Flux-Residual          L2-NORM 
          0                 1           2             5    6     1       0.2309217887E-01       5    8    1         0.1259193415E+01      0.2945283489E+01
          0                 2           2             4    7     1      -0.7099096227E-01       5    8    1        -0.3870894372E+01      0.9422153573E+01
          0                 3           2             4    7     1       0.4833715304E-02       5    8    1         0.2709161364E+00      0.6594590929E+00
          0                 4           2             4    7     1      -0.1923381791E-03       5    8    1        -0.1107966499E-01      0.2697058030E-01
          0                 5           1             4    7     1       0.2371613053E-05       5    6    1         0.1403544338E-03      0.3417391999E-03

    ------------------------------------------------
       NWT REQUIRED            5 OUTER ITERATIONS 
       AND A TOTAL OF          9 INNER ITERATIONS.
    ------------------------------------------------

 OUTPUT CONTROL FOR STRESS PERIOD    7   TIME STEP   10
    PRINT BUDGET
    SAVE BUDGET
 UBDSV1 SAVING "         STORAGE" ON UNIT 102 AT TIME STEP 10, STRESS PERIOD 7
 UBDSV2 SAVING "   CONSTANT HEAD" ON UNIT 102 AT TIME STEP 10, STRESS PERIOD 7
 UBDSV1 SAVING "FLOW RIGHT FACE " ON UNIT 102 AT TIME STEP 10, STRESS PERIOD 7
 UBDSV1 SAVING "FLOW FRONT FACE " ON UNIT 102 AT TIME STEP 10, STRESS PERIOD 7

  HEAD DEP BOUNDS   PERIOD    7   STEP    10
 BOUNDARY      1   LAYER   1   ROW    13   COL     1   RATE   -0.300044    
 BOUNDARY      2   LAYER   1   ROW    14   COL     9   RATE    0.285490    



 STREAM LISTING     PERIOD      7   STEP       10

 LAYER ROW COL. STREAM  RCH.  FLOW INTO     FLOW TO   FLOW OUT OF   OVRLND.     DIRECT     STREAM       STREAM     STREAM     STREAM   STREAMBED  STREAMBED
                SEG.NO.  NO.  STRM. RCH.    AQUIFER    STRM. RCH.    RUNOFF     PRECIP       ET          HEAD       DEPTH      WIDTH   CONDCTNC.   GRADIENT

   1    1    1     1     1    8.3000E+01  4.4019E-01   8.2560E+01  0.000E+00  0.000E+00  0.000E+00  1.09478E+03  1.734E+00  2.066E+01  9.299E-02  1.578E+00
   1    2    2     1     2    8.2560E+01  6.8286E-01   8.1877E+01  0.000E+00  0.000E+00  0.000E+00  1.08979E+03  1.731E+00  2.062E+01  1.443E-01  1.577E+00
   1    3    3     1     3    8.1877E+01  5.8349E-01   8.1294E+01  0.000E+00  0.000E+00  0.000E+00  1.08415E+03  1.729E+00  2.057E+01  1.234E-01  1.576E+00
   1    3    4     1     4    8.1294E+01  5.3822E-01   8.0756E+01  0.000E+00  0.000E+00  0.000E+00  1.07913E+03  1.726E+00  2.052E+01  1.139E-01  1.575E+00
   1    4    5     2     1    7.8756E+01  4.2120E-01   7.8334E+01  0.000E+00  0.000E+00  0.000E+00  1.07433E+03  2.400E+00  1.200E+01  7.800E-02  1.800E+00
   1    5    6     2     2    7.8334E+01  3.2359E-01   7.8011E+01  0.000E+00  0.000E+00  0.000E+00  1.06890E+03  2.393E+00  1.200E+01  6.000E-02  1.798E+00
   1    6    6     2     3    7.8011E+01  3.2323E-01   7.7688E+01  0.000E+00  0.000E+00  0.000E+00  1.06418E+03  2.387E+00  1.200E+01  6.000E-02  1.796E+00
   1    7    6     2     4    7.7688E+01  3.2288E-01   7.7365E+01  0.000E+00  0.000E+00  0.000E+00  1.05946E+03  2.381E+00  1.200E+01  6.000E-02  1.794E+00
   1    8    6     2     5    7.7365E+01  3.2252E-01   7.7042E+01  0.000E+00  0.000E+00  0.000E+00  1.05473E+03  2.375E+00  1.200E+01  6.000E-02  1.792E+00
   1    3    5     3     1    2.0000E+00  2.8252E-01   1.7175E+00  0.000E+00  0.000E+00  0.000E+00  1.07555E+03  1.909E+00  9.636E+00  7.227E-02  1.955E+00
   1    3    6     3     2    1.7175E+00  2.4905E-01   1.4684E+00  0.000E+00  0.000E+00  0.000E+00  1.07264E+03  1.727E+00  8.909E+00  6.682E-02  1.864E+00
   1    3    7     3     3    1.4684E+00  1.9718E-01   1.2712E+00  0.000E+00  0.000E+00  0.000E+00  1.06987E+03  1.555E+00  8.218E+00  5.547E-02  1.777E+00
   1    4    8     3     4    1.2712E+00  2.2567E-01   1.0456E+00  0.000E+00  0.000E+00  0.000E+00  1.06682E+03  1.364E+00  7.455E+00  6.709E-02  1.682E+00
   1    5    8     3     5    1.0456E+00  1.5790E-01   8.8768E-01  0.000E+00  0.000E+00  0.000E+00  1.06362E+03  1.164E+00  6.655E+00  4.991E-02  1.582E+00
   1    6    8     3     6    8.8768E-01  5.5980E-02   8.3170E-01  0.000E+00  0.000E+00  0.000E+00  1.06158E+03  1.036E+00  6.145E+00  1.844E-02  1.518E+00
   1    5   10     4     1    1.0000E+01  9.0919E-02   9.9091E+00  0.000E+00  0.000E+00  0.000E+00  1.07836E+03  6.368E-01  1.000E+01  2.500E-02  1.212E+00
   1    5    9     4     2    9.9091E+00  1.8158E-01   9.7275E+00  0.000E+00  0.000E+00  0.000E+00  1.07154E+03  6.315E-01  1.000E+01  5.000E-02  1.211E+00
   1    6    8     4     3    9.7275E+00  1.2689E-01   9.6006E+00  0.000E+00  0.000E+00  0.000E+00  1.06381E+03  6.256E-01  1.000E+01  3.500E-02  1.209E+00
   1    6    8     5     1    1.0432E+01  2.2686E-01   1.0205E+01  0.000E+00  0.000E+00  0.000E+00  1.05868E+03  6.790E-01  1.542E+01  6.166E-02  1.226E+00
   1    7    7     5     2    1.0205E+01  2.7894E-01   9.9265E+00  0.000E+00  0.000E+00  0.000E+00  1.05417E+03  6.732E-01  1.519E+01  7.594E-02  1.224E+00
   1    8    7     5     3    9.9265E+00  1.9221E-01   9.7343E+00  0.000E+00  0.000E+00  0.000E+00  1.04992E+03  6.676E-01  1.497E+01  5.241E-02  1.223E+00
   1    8    6     5     4    9.7343E+00  1.3577E-01   9.5985E+00  0.000E+00  0.000E+00  0.000E+00  1.04691E+03  6.637E-01  1.482E+01  3.706E-02  1.221E+00
   1    9    6     6     1    8.6641E+01  3.3426E-01   8.6306E+01  0.000E+00  0.000E+00  0.000E+00  1.04530E+03  2.571E+00  1.200E+01  6.000E-02  1.857E+00
   1   10    7     6     2    8.6306E+01  3.3390E-01   8.5973E+01  0.000E+00  0.000E+00  0.000E+00  1.04075E+03  2.565E+00  1.200E+01  6.000E-02  1.855E+00
   1   11    7     6     3    8.5973E+01  3.3354E-01   8.5639E+01  0.000E+00  0.000E+00  0.000E+00  1.03620E+03  2.559E+00  1.200E+01  6.000E-02  1.853E+00
   1   12    7     6     4    8.5639E+01  3.3319E-01   8.5306E+01  0.000E+00  0.000E+00  0.000E+00  1.03164E+03  2.553E+00  1.200E+01  6.000E-02  1.851E+00
   1   13    7     6     5    8.5306E+01  2.9753E-02   8.5276E+01  0.000E+00  0.000E+00  0.000E+00  1.02846E+03  2.550E+00  1.200E+01  2.400E-02  4.132E-01
   1   14    9     7     1    1.5000E+02  1.3319E+00   1.4867E+02  0.000E+00  0.000E+00  0.000E+00  1.03987E+03  2.288E+00  5.529E+01  5.593E-01  7.938E-01
   1   13    8     7     2    1.4867E+02  1.8055E+00   1.4686E+02  0.000E+00  0.000E+00  0.000E+00  1.03478E+03  2.279E+00  5.526E+01  6.148E-01  9.789E-01
   1   13    7     7     3    1.4686E+02  1.3800E+00   1.4548E+02  0.000E+00  0.000E+00  0.000E+00  1.02969E+03  2.271E+00  5.522E+01  5.585E-01  8.237E-01
   1   13    6     8     1    2.3076E+02  1.0581E+00   2.2970E+02  0.000E+00  0.000E+00  0.000E+00  1.02518E+03  3.308E+00  4.796E+01  4.888E-01  7.216E-01
   1   13    5     8     2    2.2970E+02  2.2293E-01   2.2948E+02  0.000E+00  0.000E+00  0.000E+00  1.01893E+03  3.304E+00  4.791E+01  4.882E-01  1.522E-01
   1   13    4     8     3    2.2948E+02 -2.0110E+00   2.3149E+02  0.000E+00  0.000E+00  0.000E+00  1.01268E+03  3.309E+00  4.798E+01  4.890E+00 -1.371E-01
   1   13    3     8     4    2.3149E+02 -3.1903E+00   2.3468E+02  0.000E+00  0.000E+00  0.000E+00  1.00645E+03  3.323E+00  4.819E+01  4.910E+00 -2.166E-01
   1   13    2     8     5    2.3468E+02 -2.5909E+00   2.3727E+02  0.000E+00  0.000E+00  0.000E+00  1.00021E+03  3.339E+00  4.841E+01  4.933E+00 -1.751E-01
   1   13    1     8     6    2.3727E+02 -1.9910E+00   2.3926E+02  0.000E+00  0.000E+00  0.000E+00  9.95226E+02  3.351E+00  4.858E+01  2.971E+00 -2.234E-01



 UBDSV3 SAVING "           GW ET" ON UNIT  61 AT TIME STEP 10, STRESS PERIOD 7
 UBDSV3 SAVING "    UZF RECHARGE" ON UNIT  61 AT TIME STEP 10, STRESS PERIOD 7
 UBDSV3 SAVING " SURFACE LEAKAGE" ON UNIT  61 AT TIME STEP 10, STRESS PERIOD 7
 UBDSV3 SAVING "       HORT+DUNN" ON UNIT  61 AT TIME STEP 10, STRESS PERIOD 7
 UBDSV3 SAVING "  STORAGE CHANGE" ON UNIT  61 AT TIME STEP 10, STRESS PERIOD 7


UNSATURATED ZONE PACKAGE VOLUMETRIC BUDGET FOR  TIME STEP    10 STRESS PERIOD    7
  ------------------------------------------------------------------------------



     CUMULATIVE VOLUMES      L**3       RATES FOR THIS TIME STEP      L**3/T
     ------------------                 ------------------------

           IN:                                      IN:
           ---                                      ---
        INFILTRATION =    61092003.9783          INFILTRATION =          23.3175

          OUT:                                     OUT:
          ----                                     ----
              UZF ET =    61015413.0307                UZF ET =          23.3175
        UZF RECHARGE =       73224.0000          UZF RECHARGE =       0.0000E+00

            IN - OUT =        3366.9476              IN - OUT =       0.0000E+00

          STORAGE:                                 STORAGE:
          --------                                 --------
      STORAGE CHANGE =        3366.9921        STORAGE CHANGE =       3.3425E-12

 PERCENT DISCREPANCY IS DIFFERENCE BETWEEN IN-OUT MINUS CHANGE IN STORAGE
 DIVIDED BY THE AVERAGE OF IN AND OUT TIMES 100

 PERCENT DISCREPANCY =           0.00     PERCENT DISCREPANCY =           0.00






 

            AG WELLS      PERIOD    7   STEP  10
 AG WELL      1   LAYER   1   ROW     6   COL     4   RATE    -3.74500    
 AG WELL      2   LAYER   1   ROW     6   COL     5   RATE    -3.74500    
 AG WELL      3   LAYER   1   ROW     7   COL     4   RATE    -3.74500    
 AG WELL      4   LAYER   1   ROW     7   COL     5   RATE    -3.74500    
 AG WELL      5   LAYER   1   ROW     8   COL     4   RATE    -3.74500    
 AG WELL      6   LAYER   1   ROW     8   COL     5   RATE    -3.74500    
 
 

        GW IRRIGATION     PERIOD    7   STEP  10
 AG WELL      1   ROW     6   COL     4   RATE     3.74500    
 AG WELL      2   ROW     6   COL     5   RATE     3.74500    
 AG WELL      3   ROW     7   COL     4   RATE     3.74500    
 AG WELL      4   ROW     7   COL     5   RATE     3.74500    
 AG WELL      5   ROW     8   COL     4   RATE     3.74500    
 AG WELL      6   ROW     8   COL     5   RATE     3.74500    
 
1
  VOLUMETRIC BUDGET FOR AGRICULTURAL FIELDS AT  END OF TIME STEP   10, STRESS PERIOD   7
  ------------------------------------------------------------------------------

     CUMULATIVE VOLUMES      L**3       RATES FOR THIS TIME STEP      L**3/T
     ------------------                 ------------------------

           IN:                                      IN:
           ---                                      ---
               AG WELLS  =    49131192.0000                 AG WELLS  =          22.4700
      DIVERSION SEGMENTS =           0.0000        DIVERSION SEGMENTS =           0.0000
       IRRIGATION PONDS  =           0.0000         IRRIGATION PONDS  =           0.0000
           GW IRRIGATION =           0.0000             GW IRRIGATION =           0.0000
           SW IRRIGATION =           0.0000             SW IRRIGATION =           0.0000
        SYSTEM LOSSES GW =           0.0000          SYSTEM LOSSES GW =           0.0000
        SYSTEM LOSSES SW =           0.0000          SYSTEM LOSSES SW =           0.0000

                TOTAL IN =    49131192.0000                  TOTAL IN =          22.4700

          OUT:                                     OUT:
          ----                                     ----
               AG WELLS  =           0.0000                 AG WELLS  =           0.0000
      DIVERSION SEGMENTS =           0.0000        DIVERSION SEGMENTS =           0.0000
       IRRIGATION PONDS  =           0.0000         IRRIGATION PONDS  =           0.0000
           GW IRRIGATION =    49131192.0000             GW IRRIGATION =          22.4700
           SW IRRIGATION =           0.0000             SW IRRIGATION =           0.0000
        SYSTEM LOSSES GW =           0.0000          SYSTEM LOSSES GW =           0.0000
        SYSTEM LOSSES SW =           0.0000          SYSTEM LOSSES SW =           0.0000

               TOTAL OUT =    49131192.0000                 TOTAL OUT =          22.4700

                IN - OUT =           0.0000                  IN - OUT =           0.0000

     PERCENT DISCREPANCY =           0.00         PERCENT DISCREPANCY =           0.00



1
  VOLUMETRIC BUDGET FOR ENTIRE MODEL AT END OF TIME STEP   10, STRESS PERIOD   7
  ------------------------------------------------------------------------------

     CUMULATIVE VOLUMES      L**3       RATES FOR THIS TIME STEP      L**3/T
     ------------------                 ------------------------

           IN:                                      IN:
           ---                                      ---
             STORAGE     =    56217036.0000               STORAGE     =          22.1462
       CONSTANT HEAD     =           0.0000         CONSTANT HEAD     =           0.0000
     HEAD DEP BOUNDS     =     4028549.5000       HEAD DEP BOUNDS     =           0.2855
      STREAM LEAKAGE     =   178529248.0000        STREAM LEAKAGE     =          13.5226
        UZF RECHARGE     =       73223.9531          UZF RECHARGE     =           0.0000
               GW ET     =           0.0000                 GW ET     =           0.0000
     SURFACE LEAKAGE     =           0.0000       SURFACE LEAKAGE     =           0.0000
           AG WELLS      =           0.0000             AG WELLS      =           0.0000

                TOTAL IN =   238848048.0000                  TOTAL IN =          35.9543

          OUT:                                     OUT:
          ----                                     ----
             STORAGE     =    38583928.0000               STORAGE     =           1.9533
       CONSTANT HEAD     =           0.0000         CONSTANT HEAD     =           0.0000
     HEAD DEP BOUNDS     =     4148317.7500       HEAD DEP BOUNDS     =           0.3000
      STREAM LEAKAGE     =   143402128.0000        STREAM LEAKAGE     =           9.7833
        UZF RECHARGE     =           0.0000          UZF RECHARGE     =           0.0000
               GW ET     =     3586483.5000                 GW ET     =           1.4476
     SURFACE LEAKAGE     =           0.0000       SURFACE LEAKAGE     =           0.0000
           AG WELLS      =    49131192.0000             AG WELLS      =          22.4700

               TOTAL OUT =   238852032.0000                 TOTAL OUT =          35.9543

                IN - OUT =       -3984.0000                  IN - OUT =       1.5259E-05

     PERCENT DISCREPANCY =          -0.00         PERCENT DISCREPANCY =           0.00






         TIME SUMMARY AT END OF TIME STEP   10 IN STRESS PERIOD    7
                    SECONDS     MINUTES      HOURS       DAYS        YEARS
                    -----------------------------------------------------------
   TIME STEP LENGTH  87667.      1461.1      24.352      1.0147     2.77799E-03
 STRESS PERIOD TIME 8.76667E+05  14611.      243.52      10.147     2.77799E-02
         TOTAL TIME 1.41131E+07 2.35218E+05  3920.3      163.35     0.44722    
1
 
 SOLVING FOR HEAD 
                                                   Max.-Head-Change                         Max.-Flux-Residual
  Residual-Control   Outer-Iter.   Inner-Iter.     Column Row Layer    Maximum-Head-Change  Column Row Layer    Maximum-Flux-Residual          L2-NORM 
          0                 1           2             5    6     1       0.2399343636E-01       5    8    1         0.1308410146E+01      0.3055909003E+01
          0                 2           2             4    7     1      -0.7104166530E-01       5    8    1        -0.3875816161E+01      0.9432145033E+01
          0                 3           2             4    7     1       0.4837168115E-02       5    8    1         0.2712623153E+00      0.6601620796E+00
          0                 4           2             4    7     1      -0.1924755689E-03       5    8    1        -0.1109398743E-01      0.2699964453E-01
          0                 5           1             4    7     1       0.2373306717E-05       5    8    1         0.1405468397E-03      0.3421337551E-03

    ------------------------------------------------
       NWT REQUIRED            5 OUTER ITERATIONS 
       AND A TOTAL OF          9 INNER ITERATIONS.
    ------------------------------------------------

 NO OUTPUT CONTROL FOR STRESS PERIOD    7   TIME STEP   11
 
 SOLVING FOR HEAD 
                                                   Max.-Head-Change                         Max.-Flux-Residual
  Residual-Control   Outer-Iter.   Inner-Iter.     Column Row Layer    Maximum-Head-Change  Column Row Layer    Maximum-Flux-Residual          L2-NORM 
          0                 1           2             5    6     1       0.2485416110E-01       5    8    1         0.1355302891E+01      0.3163730272E+01
          0                 2           2             4    7     1      -0.7109285029E-01       5    8    1        -0.3880505549E+01      0.9441843708E+01
          0                 3           2             4    7     1       0.4840653732E-02       5    8    1         0.2715921147E+00      0.6608438720E+00
          0                 4           2             4    7     1      -0.1926142645E-03       5    8    1        -0.1110762896E-01      0.2702778392E-01
          0                 5           1             4    7     1       0.2375017184E-05       5    8    1         0.1407300697E-03      0.3424816064E-03

    ------------------------------------------------
       NWT REQUIRED            5 OUTER ITERATIONS 
       AND A TOTAL OF          9 INNER ITERATIONS.
    ------------------------------------------------

 NO OUTPUT CONTROL FOR STRESS PERIOD    7   TIME STEP   12
 
 SOLVING FOR HEAD 
                                                   Max.-Head-Change                         Max.-Flux-Residual
  Residual-Control   Outer-Iter.   Inner-Iter.     Column Row Layer    Maximum-Head-Change  Column Row Layer    Maximum-Flux-Residual          L2-NORM 
          0                 1           2             5    6     1       0.2567717401E-01       5    8    1         0.1400040805E+01      0.3268454921E+01
          0                 2           2             4    7     1      -0.7114444550E-01       5    8    1        -0.3884979451E+01      0.9451261411E+01
          0                 3           2             4    7     1       0.4844167268E-02       5    8    1         0.2719067270E+00      0.6615055953E+00
          0                 4           2             4    7     1      -0.1927540708E-03       5    8    1        -0.1112063915E-01      0.2705507550E-01
          0                 5           1             4    7     1       0.2376741092E-05       5    8    1         0.1409046258E-03      0.3428389144E-03

    ------------------------------------------------
       NWT REQUIRED            5 OUTER ITERATIONS 
       AND A TOTAL OF          9 INNER ITERATIONS.
    ------------------------------------------------

 NO OUTPUT CONTROL FOR STRESS PERIOD    7   TIME STEP   13
 
 SOLVING FOR HEAD 
                                                   Max.-Head-Change                         Max.-Flux-Residual
  Residual-Control   Outer-Iter.   Inner-Iter.     Column Row Layer    Maximum-Head-Change  Column Row Layer    Maximum-Flux-Residual          L2-NORM 
          0                 1           2             5    6     1       0.2646422277E-01       5    8    1         0.1442748351E+01      0.3369948380E+01
          0                 2           2             4    7     1      -0.7119630708E-01       5    8    1        -0.3889250314E+01      0.9460408141E+01
          0                 3           2             4    7     1       0.4847698931E-02       5    8    1         0.2722070307E+00      0.6621479142E+00
          0                 4           2             4    7     1      -0.1928945986E-03       5    8    1        -0.1113305464E-01      0.2708153447E-01
          0                 5           1             4    7     1       0.2378473738E-05       5    8    1         0.1410710015E-03      0.3431825255E-03

    ------------------------------------------------
       NWT REQUIRED            5 OUTER ITERATIONS 
       AND A TOTAL OF          9 INNER ITERATIONS.
    ------------------------------------------------

 NO OUTPUT CONTROL FOR STRESS PERIOD    7   TIME STEP   14
 
 SOLVING FOR HEAD 
                                                   Max.-Head-Change                         Max.-Flux-Residual
  Residual-Control   Outer-Iter.   Inner-Iter.     Column Row Layer    Maximum-Head-Change  Column Row Layer    Maximum-Flux-Residual          L2-NORM 
          0                 1           2             5    6     1       0.2721810037E-01       5    8    1         0.1483556763E+01      0.3468216399E+01
          0                 2           2             4    7     1      -0.7124837917E-01       5    8    1        -0.3893331260E+01      0.9469295831E+01
          0                 3           2             4    7     1       0.4851244915E-02       5    8    1         0.2724937678E+00      0.6627718800E+00
          0                 4           2             4    7     1      -0.1930356969E-03       5    8    1        -0.1114488846E-01      0.2710722591E-01
          0                 5           1             4    7     1       0.2380213776E-05       5    6    1         0.1412290258E-03      0.3435201274E-03

    ------------------------------------------------
       NWT REQUIRED            5 OUTER ITERATIONS 
       AND A TOTAL OF          9 INNER ITERATIONS.
    ------------------------------------------------

 OUTPUT CONTROL FOR STRESS PERIOD    7   TIME STEP   15
    PRINT BUDGET
    SAVE BUDGET
 UBDSV1 SAVING "         STORAGE" ON UNIT 102 AT TIME STEP 15, STRESS PERIOD 7
 UBDSV2 SAVING "   CONSTANT HEAD" ON UNIT 102 AT TIME STEP 15, STRESS PERIOD 7
 UBDSV1 SAVING "FLOW RIGHT FACE " ON UNIT 102 AT TIME STEP 15, STRESS PERIOD 7
 UBDSV1 SAVING "FLOW FRONT FACE " ON UNIT 102 AT TIME STEP 15, STRESS PERIOD 7

  HEAD DEP BOUNDS   PERIOD    7   STEP    15
 BOUNDARY      1   LAYER   1   ROW    13   COL     1   RATE   -0.299953    
 BOUNDARY      2   LAYER   1   ROW    14   COL     9   RATE    0.285489    



 STREAM LISTING     PERIOD      7   STEP       15

 LAYER ROW COL. STREAM  RCH.  FLOW INTO     FLOW TO   FLOW OUT OF   OVRLND.     DIRECT     STREAM       STREAM     STREAM     STREAM   STREAMBED  STREAMBED
                SEG.NO.  NO.  STRM. RCH.    AQUIFER    STRM. RCH.    RUNOFF     PRECIP       ET          HEAD       DEPTH      WIDTH   CONDCTNC.   GRADIENT

   1    1    1     1     1    8.3000E+01  4.4019E-01   8.2560E+01  0.000E+00  0.000E+00  0.000E+00  1.09478E+03  1.734E+00  2.066E+01  9.299E-02  1.578E+00
   1    2    2     1     2    8.2560E+01  6.8286E-01   8.1877E+01  0.000E+00  0.000E+00  0.000E+00  1.08979E+03  1.731E+00  2.062E+01  1.443E-01  1.577E+00
   1    3    3     1     3    8.1877E+01  5.8349E-01   8.1294E+01  0.000E+00  0.000E+00  0.000E+00  1.08415E+03  1.729E+00  2.057E+01  1.234E-01  1.576E+00
   1    3    4     1     4    8.1294E+01  5.3822E-01   8.0756E+01  0.000E+00  0.000E+00  0.000E+00  1.07913E+03  1.726E+00  2.052E+01  1.139E-01  1.575E+00
   1    4    5     2     1    7.8756E+01  4.2120E-01   7.8334E+01  0.000E+00  0.000E+00  0.000E+00  1.07433E+03  2.400E+00  1.200E+01  7.800E-02  1.800E+00
   1    5    6     2     2    7.8334E+01  3.2359E-01   7.8011E+01  0.000E+00  0.000E+00  0.000E+00  1.06890E+03  2.393E+00  1.200E+01  6.000E-02  1.798E+00
   1    6    6     2     3    7.8011E+01  3.2323E-01   7.7688E+01  0.000E+00  0.000E+00  0.000E+00  1.06418E+03  2.387E+00  1.200E+01  6.000E-02  1.796E+00
   1    7    6     2     4    7.7688E+01  3.2288E-01   7.7365E+01  0.000E+00  0.000E+00  0.000E+00  1.05946E+03  2.381E+00  1.200E+01  6.000E-02  1.794E+00
   1    8    6     2     5    7.7365E+01  3.2252E-01   7.7042E+01  0.000E+00  0.000E+00  0.000E+00  1.05473E+03  2.375E+00  1.200E+01  6.000E-02  1.792E+00
   1    3    5     3     1    2.0000E+00  2.8252E-01   1.7175E+00  0.000E+00  0.000E+00  0.000E+00  1.07555E+03  1.909E+00  9.636E+00  7.227E-02  1.955E+00
   1    3    6     3     2    1.7175E+00  2.4905E-01   1.4684E+00  0.000E+00  0.000E+00  0.000E+00  1.07264E+03  1.727E+00  8.909E+00  6.682E-02  1.864E+00
   1    3    7     3     3    1.4684E+00  1.9718E-01   1.2712E+00  0.000E+00  0.000E+00  0.000E+00  1.06987E+03  1.555E+00  8.218E+00  5.547E-02  1.777E+00
   1    4    8     3     4    1.2712E+00  2.2567E-01   1.0456E+00  0.000E+00  0.000E+00  0.000E+00  1.06682E+03  1.364E+00  7.455E+00  6.709E-02  1.682E+00
   1    5    8     3     5    1.0456E+00  1.5790E-01   8.8768E-01  0.000E+00  0.000E+00  0.000E+00  1.06362E+03  1.164E+00  6.655E+00  4.991E-02  1.582E+00
   1    6    8     3     6    8.8768E-01  5.5980E-02   8.3170E-01  0.000E+00  0.000E+00  0.000E+00  1.06158E+03  1.036E+00  6.145E+00  1.844E-02  1.518E+00
   1    5   10     4     1    1.0000E+01  9.0919E-02   9.9091E+00  0.000E+00  0.000E+00  0.000E+00  1.07836E+03  6.368E-01  1.000E+01  2.500E-02  1.212E+00
   1    5    9     4     2    9.9091E+00  1.8158E-01   9.7275E+00  0.000E+00  0.000E+00  0.000E+00  1.07154E+03  6.315E-01  1.000E+01  5.000E-02  1.211E+00
   1    6    8     4     3    9.7275E+00  1.2689E-01   9.6006E+00  0.000E+00  0.000E+00  0.000E+00  1.06381E+03  6.256E-01  1.000E+01  3.500E-02  1.209E+00
   1    6    8     5     1    1.0432E+01  2.2686E-01   1.0205E+01  0.000E+00  0.000E+00  0.000E+00  1.05868E+03  6.790E-01  1.542E+01  6.166E-02  1.226E+00
   1    7    7     5     2    1.0205E+01  2.7894E-01   9.9265E+00  0.000E+00  0.000E+00  0.000E+00  1.05417E+03  6.732E-01  1.519E+01  7.594E-02  1.224E+00
   1    8    7     5     3    9.9265E+00  1.9221E-01   9.7343E+00  0.000E+00  0.000E+00  0.000E+00  1.04992E+03  6.676E-01  1.497E+01  5.241E-02  1.223E+00
   1    8    6     5     4    9.7343E+00  1.3577E-01   9.5985E+00  0.000E+00  0.000E+00  0.000E+00  1.04691E+03  6.637E-01  1.482E+01  3.706E-02  1.221E+00
   1    9    6     6     1    8.6641E+01  3.3426E-01   8.6306E+01  0.000E+00  0.000E+00  0.000E+00  1.04530E+03  2.571E+00  1.200E+01  6.000E-02  1.857E+00
   1   10    7     6     2    8.6306E+01  3.3390E-01   8.5973E+01  0.000E+00  0.000E+00  0.000E+00  1.04075E+03  2.565E+00  1.200E+01  6.000E-02  1.855E+00
   1   11    7     6     3    8.5973E+01  3.3354E-01   8.5639E+01  0.000E+00  0.000E+00  0.000E+00  1.03620E+03  2.559E+00  1.200E+01  6.000E-02  1.853E+00
   1   12    7     6     4    8.5639E+01  3.3319E-01   8.5306E+01  0.000E+00  0.000E+00  0.000E+00  1.03164E+03  2.553E+00  1.200E+01  6.000E-02  1.851E+00
   1   13    7     6     5    8.5306E+01  2.9667E-02   8.5276E+01  0.000E+00  0.000E+00  0.000E+00  1.02846E+03  2.550E+00  1.200E+01  2.400E-02  4.120E-01
   1   14    9     7     1    1.5000E+02  1.3319E+00   1.4867E+02  0.000E+00  0.000E+00  0.000E+00  1.03987E+03  2.288E+00  5.529E+01  5.593E-01  7.938E-01
   1   13    8     7     2    1.4867E+02  1.8047E+00   1.4686E+02  0.000E+00  0.000E+00  0.000E+00  1.03478E+03  2.279E+00  5.526E+01  6.148E-01  9.785E-01
   1   13    7     7     3    1.4686E+02  1.3780E+00   1.4549E+02  0.000E+00  0.000E+00  0.000E+00  1.02969E+03  2.271E+00  5.522E+01  5.585E-01  8.225E-01
   1   13    6     8     1    2.3076E+02  1.0561E+00   2.2971E+02  0.000E+00  0.000E+00  0.000E+00  1.02518E+03  3.308E+00  4.796E+01  4.888E-01  7.203E-01
   1   13    5     8     2    2.2971E+02  2.2234E-01   2.2948E+02  0.000E+00  0.000E+00  0.000E+00  1.01893E+03  3.304E+00  4.791E+01  4.883E-01  1.518E-01
   1   13    4     8     3    2.2948E+02 -1.9821E+00   2.3147E+02  0.000E+00  0.000E+00  0.000E+00  1.01268E+03  3.309E+00  4.798E+01  4.890E+00 -1.351E-01
   1   13    3     8     4    2.3147E+02 -3.1580E+00   2.3462E+02  0.000E+00  0.000E+00  0.000E+00  1.00645E+03  3.323E+00  4.818E+01  4.910E+00 -2.144E-01
   1   13    2     8     5    2.3462E+02 -2.5558E+00   2.3718E+02  0.000E+00  0.000E+00  0.000E+00  1.00021E+03  3.338E+00  4.840E+01  4.932E+00 -1.727E-01
   1   13    1     8     6    2.3718E+02 -1.9851E+00   2.3916E+02  0.000E+00  0.000E+00  0.000E+00  9.95225E+02  3.350E+00  4.858E+01  2.970E+00 -2.228E-01



 UBDSV3 SAVING "           GW ET" ON UNIT  61 AT TIME STEP 15, STRESS PERIOD 7
 UBDSV3 SAVING "    UZF RECHARGE" ON UNIT  61 AT TIME STEP 15, STRESS PERIOD 7
 UBDSV3 SAVING " SURFACE LEAKAGE" ON UNIT  61 AT TIME STEP 15, STRESS PERIOD 7
 UBDSV3 SAVING "       HORT+DUNN" ON UNIT  61 AT TIME STEP 15, STRESS PERIOD 7
 UBDSV3 SAVING "  STORAGE CHANGE" ON UNIT  61 AT TIME STEP 15, STRESS PERIOD 7


UNSATURATED ZONE PACKAGE VOLUMETRIC BUDGET FOR  TIME STEP    15 STRESS PERIOD    7
  ------------------------------------------------------------------------------



     CUMULATIVE VOLUMES      L**3       RATES FOR THIS TIME STEP      L**3/T
     ------------------                 ------------------------

           IN:                                      IN:
           ---                                      ---
        INFILTRATION =    71312841.4577          INFILTRATION =          23.3175

          OUT:                                     OUT:
          ----                                     ----
              UZF ET =    71236250.5101                UZF ET =          23.3175
        UZF RECHARGE =       73224.0000          UZF RECHARGE =       0.0000E+00

            IN - OUT =        3366.9476              IN - OUT =       0.0000E+00

          STORAGE:                                 STORAGE:
          --------                                 --------
      STORAGE CHANGE =        3366.9921        STORAGE CHANGE =       3.3425E-12

 PERCENT DISCREPANCY IS DIFFERENCE BETWEEN IN-OUT MINUS CHANGE IN STORAGE
 DIVIDED BY THE AVERAGE OF IN AND OUT TIMES 100

 PERCENT DISCREPANCY =           0.00     PERCENT DISCREPANCY =           0.00






 

            AG WELLS      PERIOD    7   STEP  15
 AG WELL      1   LAYER   1   ROW     6   COL     4   RATE    -3.74500    
 AG WELL      2   LAYER   1   ROW     6   COL     5   RATE    -3.74500    
 AG WELL      3   LAYER   1   ROW     7   COL     4   RATE    -3.74500    
 AG WELL      4   LAYER   1   ROW     7   COL     5   RATE    -3.74500    
 AG WELL      5   LAYER   1   ROW     8   COL     4   RATE    -3.74500    
 AG WELL      6   LAYER   1   ROW     8   COL     5   RATE    -3.74500    
 
 

        GW IRRIGATION     PERIOD    7   STEP  15
 AG WELL      1   ROW     6   COL     4   RATE     3.74500    
 AG WELL      2   ROW     6   COL     5   RATE     3.74500    
 AG WELL      3   ROW     7   COL     4   RATE     3.74500    
 AG WELL      4   ROW     7   COL     5   RATE     3.74500    
 AG WELL      5   ROW     8   COL     4   RATE     3.74500    
 AG WELL      6   ROW     8   COL     5   RATE     3.74500    
 
1
  VOLUMETRIC BUDGET FOR AGRICULTURAL FIELDS AT  END OF TIME STEP   15, STRESS PERIOD   7
  ------------------------------------------------------------------------------

     CUMULATIVE VOLUMES      L**3       RATES FOR THIS TIME STEP      L**3/T
     ------------------                 ------------------------

           IN:                                      IN:
           ---                                      ---
               AG WELLS  =    58980552.0000                 AG WELLS  =          22.4700
      DIVERSION SEGMENTS =           0.0000        DIVERSION SEGMENTS =           0.0000
       IRRIGATION PONDS  =           0.0000         IRRIGATION PONDS  =           0.0000
           GW IRRIGATION =           0.0000             GW IRRIGATION =           0.0000
           SW IRRIGATION =           0.0000             SW IRRIGATION =           0.0000
        SYSTEM LOSSES GW =           0.0000          SYSTEM LOSSES GW =           0.0000
        SYSTEM LOSSES SW =           0.0000          SYSTEM LOSSES SW =           0.0000

                TOTAL IN =    58980552.0000                  TOTAL IN =          22.4700

          OUT:                                     OUT:
          ----                                     ----
               AG WELLS  =           0.0000                 AG WELLS  =           0.0000
      DIVERSION SEGMENTS =           0.0000        DIVERSION SEGMENTS =           0.0000
       IRRIGATION PONDS  =           0.0000         IRRIGATION PONDS  =           0.0000
           GW IRRIGATION =    58980552.0000             GW IRRIGATION =          22.4700
           SW IRRIGATION =           0.0000             SW IRRIGATION =           0.0000
        SYSTEM LOSSES GW =           0.0000          SYSTEM LOSSES GW =           0.0000
        SYSTEM LOSSES SW =           0.0000          SYSTEM LOSSES SW =           0.0000

               TOTAL OUT =    58980552.0000                 TOTAL OUT =          22.4700

                IN - OUT =           0.0000                  IN - OUT =           0.0000

     PERCENT DISCREPANCY =           0.00         PERCENT DISCREPANCY =           0.00



1
  VOLUMETRIC BUDGET FOR ENTIRE MODEL AT END OF TIME STEP   15, STRESS PERIOD   7
  ------------------------------------------------------------------------------

     CUMULATIVE VOLUMES      L**3       RATES FOR THIS TIME STEP      L**3/T
     ------------------                 ------------------------

           IN:                                      IN:
           ---                                      ---
             STORAGE     =    65848624.0000               STORAGE     =          21.8829
       CONSTANT HEAD     =           0.0000         CONSTANT HEAD     =           0.0000
     HEAD DEP BOUNDS     =     4153689.5000       HEAD DEP BOUNDS     =           0.2855
      STREAM LEAKAGE     =   184455232.0000        STREAM LEAKAGE     =          13.5172
        UZF RECHARGE     =       73223.9531          UZF RECHARGE     =           0.0000
               GW ET     =           0.0000                 GW ET     =           0.0000
     SURFACE LEAKAGE     =           0.0000       SURFACE LEAKAGE     =           0.0000
           AG WELLS      =           0.0000             AG WELLS      =           0.0000

                TOTAL IN =   254530752.0000                  TOTAL IN =          35.6856

          OUT:                                     OUT:
          ----                                     ----
             STORAGE     =    39421108.0000               STORAGE     =           1.8823
       CONSTANT HEAD     =           0.0000         CONSTANT HEAD     =           0.0000
     HEAD DEP BOUNDS     =     4279813.0000       HEAD DEP BOUNDS     =           0.3000
      STREAM LEAKAGE     =   147660800.0000        STREAM LEAKAGE     =           9.6810
        UZF RECHARGE     =           0.0000          UZF RECHARGE     =           0.0000
               GW ET     =     4192486.5000                 GW ET     =           1.3524
     SURFACE LEAKAGE     =           0.0000       SURFACE LEAKAGE     =           0.0000
           AG WELLS      =    58980552.0000             AG WELLS      =          22.4700

               TOTAL OUT =   254534752.0000                 TOTAL OUT =          35.6856

                IN - OUT =       -4000.0000                  IN - OUT =       1.5259E-05

     PERCENT DISCREPANCY =          -0.00         PERCENT DISCREPANCY =           0.00






         TIME SUMMARY AT END OF TIME STEP   15 IN STRESS PERIOD    7
                    SECONDS     MINUTES      HOURS       DAYS        YEARS
                    -----------------------------------------------------------
   TIME STEP LENGTH  87667.      1461.1      24.352      1.0147     2.77799E-03
 STRESS PERIOD TIME 1.31500E+06  21917.      365.28      15.220     4.16698E-02
         TOTAL TIME 1.45514E+07 2.42524E+05  4042.1      168.42     0.46111    
1
 
 SOLVING FOR HEAD 
                                                   Max.-Head-Change                         Max.-Flux-Residual
  Residual-Control   Outer-Iter.   Inner-Iter.     Column Row Layer    Maximum-Head-Change  Column Row Layer    Maximum-Flux-Residual          L2-NORM 
          0                 1           2             5    6     1       0.2794022868E-01       5    8    1         0.1522587112E+01      0.3563280105E+01
          0                 2           2             4    7     1      -0.7130058438E-01       5    8    1        -0.3897234396E+01      0.9477933553E+01
          0                 3           2             4    7     1       0.4854799952E-02       5    8    1         0.2727675488E+00      0.6633776606E+00
          0                 4           2             4    7     1      -0.1931771544E-03       5    8    1        -0.1115614304E-01      0.2713211161E-01
          0                 5           1             4    7     1       0.2381957847E-05       5    6    1         0.1413784685E-03      0.3438403963E-03

    ------------------------------------------------
       NWT REQUIRED            5 OUTER ITERATIONS 
       AND A TOTAL OF          9 INNER ITERATIONS.
    ------------------------------------------------

 NO OUTPUT CONTROL FOR STRESS PERIOD    7   TIME STEP   16
 
 SOLVING FOR HEAD 
                                                   Max.-Head-Change                         Max.-Flux-Residual
  Residual-Control   Outer-Iter.   Inner-Iter.     Column Row Layer    Maximum-Head-Change  Column Row Layer    Maximum-Flux-Residual          L2-NORM 
          0                 1           2             5    6     1       0.2863281671E-01       5    8    1         0.1559936109E+01      0.3655243386E+01
          0                 2           2             4    7     1      -0.7135285136E-01       5    8    1        -0.3900969395E+01      0.9486332313E+01
          0                 3           2             4    7     1       0.4858359185E-02       5    8    1         0.2730295199E+00      0.6639663352E+00
          0                 4           2             4    7     1      -0.1933187796E-03       5    8    1        -0.1116691055E-01      0.2715626258E-01
          0                 5           1             4    7     1       0.2383704383E-05       5    6    1         0.1415182051E-03      0.3441510158E-03

    ------------------------------------------------
       NWT REQUIRED            5 OUTER ITERATIONS 
       AND A TOTAL OF          9 INNER ITERATIONS.
    ------------------------------------------------

 NO OUTPUT CONTROL FOR STRESS PERIOD    7   TIME STEP   17
 
 SOLVING FOR HEAD 
                                                   Max.-Head-Change                         Max.-Flux-Residual
  Residual-Control   Outer-Iter.   Inner-Iter.     Column Row Layer    Maximum-Head-Change  Column Row Layer    Maximum-Flux-Residual          L2-NORM 
          0                 1           2             5    6     1       0.2929732279E-01       5    8    1         0.1595701501E+01      0.3744185491E+01
          0                 2           2             4    7     1      -0.7140511419E-01       5    8    1        -0.3904546030E+01      0.9494499541E+01
          0                 3           2             4    7     1       0.4861918126E-02       5    8    1         0.2732803688E+00      0.6645384363E+00
          0                 4           2             4    7     1      -0.1934603925E-03       5    8    1        -0.1117721946E-01      0.2717970090E-01
          0                 5           1             4    7     1       0.2385450022E-05       5    6    1         0.1416487689E-03      0.3444504013E-03

    ------------------------------------------------
       NWT REQUIRED            5 OUTER ITERATIONS 
       AND A TOTAL OF          9 INNER ITERATIONS.
    ------------------------------------------------

 NO OUTPUT CONTROL FOR STRESS PERIOD    7   TIME STEP   18
 
 SOLVING FOR HEAD 
                                                   Max.-Head-Change                         Max.-Flux-Residual
  Residual-Control   Outer-Iter.   Inner-Iter.     Column Row Layer    Maximum-Head-Change  Column Row Layer    Maximum-Flux-Residual          L2-NORM 
          0                 1           2             5    6     1       0.2993539440E-01       5    8    1         0.1629996779E+01      0.3830249621E+01
          0                 2           2             4    7     1      -0.7145731224E-01       5    8    1        -0.3907975651E+01      0.9502445967E+01
          0                 3           2             4    7     1       0.4865472645E-02       5    6    1         0.2735208795E+00      0.6650947749E+00
          0                 4           2             4    7     1      -0.1936018307E-03       5    8    1        -0.1118705890E-01      0.2720246804E-01
          0                 5           1             4    7     1       0.2387194541E-05       5    8    1         0.1417744375E-03      0.3447399451E-03

    ------------------------------------------------
       NWT REQUIRED            5 OUTER ITERATIONS 
       AND A TOTAL OF          9 INNER ITERATIONS.
    ------------------------------------------------

 NO OUTPUT CONTROL FOR STRESS PERIOD    7   TIME STEP   19
 
 SOLVING FOR HEAD 
                                                   Max.-Head-Change                         Max.-Flux-Residual
  Residual-Control   Outer-Iter.   Inner-Iter.     Column Row Layer    Maximum-Head-Change  Column Row Layer    Maximum-Flux-Residual          L2-NORM 
          0                 1           2             5    6     1       0.3054827862E-01       5    8    1         0.1662896433E+01      0.3913533745E+01
          0                 2           2             4    7     1      -0.7150938982E-01       5    8    1        -0.3911265706E+01      0.9510178723E+01
          0                 3           2             4    7     1       0.4869018952E-02       5    6    1         0.2737529184E+00      0.6656360575E+00
          0                 4           2             4    7     1      -0.1937429409E-03       5    6    1        -0.1119651617E-01      0.2722460831E-01
          0                 5           1             4    7     1       0.2388934131E-05       5    6    1         0.1418943702E-03      0.3450199057E-03

    ------------------------------------------------
       NWT REQUIRED            5 OUTER ITERATIONS 
       AND A TOTAL OF          9 INNER ITERATIONS.
    ------------------------------------------------

 NO OUTPUT CONTROL FOR STRESS PERIOD    7   TIME STEP   20
 
 SOLVING FOR HEAD 
                                                   Max.-Head-Change                         Max.-Flux-Residual
  Residual-Control   Outer-Iter.   Inner-Iter.     Column Row Layer    Maximum-Head-Change  Column Row Layer    Maximum-Flux-Residual          L2-NORM 
          0                 1           2             5    6     1       0.3113773701E-01       5    8    1         0.1694492553E+01      0.3994180967E+01
          0                 2           2             4    7     1      -0.7156129676E-01       5    8    1        -0.3914425406E+01      0.9517708489E+01
          0                 3           2             4    7     1       0.4872553631E-02       5    6    1         0.2739759314E+00      0.6661631272E+00
          0                 4           2             4    7     1      -0.1938835893E-03       5    6    1        -0.1120563740E-01      0.2724616470E-01
          0                 5           1             4    7     1       0.2390668569E-05       5    6    1         0.1420099579E-03      0.3452955081E-03

    ------------------------------------------------
       NWT REQUIRED            5 OUTER ITERATIONS 
       AND A TOTAL OF          9 INNER ITERATIONS.
    ------------------------------------------------

 NO OUTPUT CONTROL FOR STRESS PERIOD    7   TIME STEP   21
 
 SOLVING FOR HEAD 
                                                   Max.-Head-Change                         Max.-Flux-Residual
  Residual-Control   Outer-Iter.   Inner-Iter.     Column Row Layer    Maximum-Head-Change  Column Row Layer    Maximum-Flux-Residual          L2-NORM 
          0                 1           2             5    6     1       0.3170510487E-01       5    8    1         0.1724848135E+01      0.4072290411E+01
          0                 2           2             4    7     1      -0.7161298611E-01       5    8    1        -0.3917461048E+01      0.9525041405E+01
          0                 3           2             4    7     1       0.4876073486E-02       5    6    1         0.2741904418E+00      0.6666764178E+00
          0                 4           2             4    7     1      -0.1940236474E-03       5    6    1        -0.1121441088E-01      0.2726715873E-01
          0                 5           1             4    7     1       0.2392395614E-05       5    6    1         0.1421211414E-03      0.3455599535E-03

    ------------------------------------------------
       NWT REQUIRED            5 OUTER ITERATIONS 
       AND A TOTAL OF          9 INNER ITERATIONS.
    ------------------------------------------------

 NO OUTPUT CONTROL FOR STRESS PERIOD    7   TIME STEP   22
 
 SOLVING FOR HEAD 
                                                   Max.-Head-Change                         Max.-Flux-Residual
  Residual-Control   Outer-Iter.   Inner-Iter.     Column Row Layer    Maximum-Head-Change  Column Row Layer    Maximum-Flux-Residual          L2-NORM 
          0                 1           2             5    6     1       0.3225102983E-01       5    8    1         0.1754036350E+01      0.4147965829E+01
          0                 2           2             4    7     1      -0.7166441542E-01       5    8    1        -0.3920379951E+01      0.9532183598E+01
          0                 3           2             4    7     1       0.4879575625E-02       5    6    1         0.2743967025E+00      0.6671763583E+00
          0                 4           2             4    7     1      -0.1941630008E-03       5    6    1        -0.1122284694E-01      0.2728760713E-01
          0                 5           1             4    7     1       0.2394113697E-05       5    6    1         0.1422280593E-03      0.3458209465E-03

    ------------------------------------------------
       NWT REQUIRED            5 OUTER ITERATIONS 
       AND A TOTAL OF          9 INNER ITERATIONS.
    ------------------------------------------------

 NO OUTPUT CONTROL FOR STRESS PERIOD    7   TIME STEP   23
 
 SOLVING FOR HEAD 
                                                   Max.-Head-Change                         Max.-Flux-Residual
  Residual-Control   Outer-Iter.   Inner-Iter.     Column Row Layer    Maximum-Head-Change  Column Row Layer    Maximum-Flux-Residual          L2-NORM 
          0                 1           2             5    6     1       0.3277732447E-01       5    6    1         0.1782144372E+01      0.4221342807E+01
          0                 2           2             4    7     1      -0.7171554640E-01       5    8    1        -0.3923189788E+01      0.9539145319E+01
          0                 3           2             4    7     1       0.4883057443E-02       5    6    1         0.2745954122E+00      0.6676636651E+00
          0                 4           2             4    7     1      -0.1943015460E-03       5    6    1        -0.1123097418E-01      0.2730753744E-01
          0                 5           1             4    7     1       0.2395822371E-05       5    6    1         0.1423310446E-03      0.3460712091E-03

    ------------------------------------------------
       NWT REQUIRED            5 OUTER ITERATIONS 
       AND A TOTAL OF          9 INNER ITERATIONS.
    ------------------------------------------------

 NO OUTPUT CONTROL FOR STRESS PERIOD    7   TIME STEP   24
 
 SOLVING FOR HEAD 
                                                   Max.-Head-Change                         Max.-Flux-Residual
  Residual-Control   Outer-Iter.   Inner-Iter.     Column Row Layer    Maximum-Head-Change  Column Row Layer    Maximum-Flux-Residual          L2-NORM 
          0                 1           2             5    6     1       0.3328476445E-01       5    6    1         0.1809497055E+01      0.4292491972E+01
          0                 2           2             4    7     1      -0.7176634347E-01       5    6    1        -0.3925922183E+01      0.9545930230E+01
          0                 3           2             4    7     1       0.4886516575E-02       5    6    1         0.2747868809E+00      0.6681388210E+00
          0                 4           2             4    7     1      -0.1944391776E-03       5    6    1        -0.1123880524E-01      0.2732695112E-01
          0                 5           1             4    7     1       0.2397519396E-05       5    6    1         0.1424303041E-03      0.3463170500E-03

    ------------------------------------------------
       NWT REQUIRED            5 OUTER ITERATIONS 
       AND A TOTAL OF          9 INNER ITERATIONS.
    ------------------------------------------------

 NO OUTPUT CONTROL FOR STRESS PERIOD    7   TIME STEP   25
 
 SOLVING FOR HEAD 
                                                   Max.-Head-Change                         Max.-Flux-Residual
  Residual-Control   Outer-Iter.   Inner-Iter.     Column Row Layer    Maximum-Head-Change  Column Row Layer    Maximum-Flux-Residual          L2-NORM 
          0                 1           2             5    6     1       0.3377408797E-01       5    6    1         0.1835855547E+01      0.4361533359E+01
          0                 2           2             4    7     1      -0.7181674856E-01       5    6    1        -0.3928557996E+01      0.9552544937E+01
          0                 3           2             4    7     1       0.4889949594E-02       5    6    1         0.2749713904E+00      0.6686031455E+00
          0                 4           2             4    7     1      -0.1945757805E-03       5    6    1        -0.1124635168E-01      0.2734594241E-01
          0                 5           1             4    7     1       0.2399203651E-05       5    6    1         0.1425259306E-03      0.3465579195E-03

    ------------------------------------------------
       NWT REQUIRED            5 OUTER ITERATIONS 
       AND A TOTAL OF          9 INNER ITERATIONS.
    ------------------------------------------------

 NO OUTPUT CONTROL FOR STRESS PERIOD    7   TIME STEP   26
 
 SOLVING FOR HEAD 
                                                   Max.-Head-Change                         Max.-Flux-Residual
  Residual-Control   Outer-Iter.   Inner-Iter.     Column Row Layer    Maximum-Head-Change  Column Row Layer    Maximum-Flux-Residual          L2-NORM 
          0                 1           2             5    6     1       0.3424658684E-01       5    6    1         0.1861291230E+01      0.4428559643E+01
          0                 2           2             4    7     1      -0.7186678814E-01       5    6    1        -0.3931101530E+01      0.9558998365E+01
          0                 3           2             4    7     1       0.4893365019E-02       5    8    1         0.2762757407E+00      0.6695367509E+00
          0                 4           2             4    7     1      -0.1947116833E-03       5    8    1        -0.1129969974E-01      0.2738410698E-01
          0                 5           1             4    7     1       0.2400879281E-05       5    8    1         0.1432020135E-03      0.3470410871E-03

    ------------------------------------------------
       NWT REQUIRED            5 OUTER ITERATIONS 
       AND A TOTAL OF          9 INNER ITERATIONS.
    ------------------------------------------------

 NO OUTPUT CONTROL FOR STRESS PERIOD    7   TIME STEP   27
 
 SOLVING FOR HEAD 
                                                   Max.-Head-Change                         Max.-Flux-Residual
  Residual-Control   Outer-Iter.   Inner-Iter.     Column Row Layer    Maximum-Head-Change  Column Row Layer    Maximum-Flux-Residual          L2-NORM 
          0                 1           2             5    6     1       0.3470317042E-01       5    6    1         0.1885854723E+01      0.4494122887E+01
          0                 2           2             4    7     1      -0.7191638150E-01       5    6    1        -0.3933557845E+01      0.9564522575E+01
          0                 3           2             5    8     1       0.4896810208E-02       5    8    1         0.2775369964E+00      0.6704394725E+00
          0                 4           2             5    8     1      -0.1948487599E-03       5    8    1        -0.1135128539E-01      0.2742102821E-01
          0                 5           1             5    8     1       0.2402569473E-05       5    8    1         0.1438557661E-03      0.3475121094E-03

    ------------------------------------------------
       NWT REQUIRED            5 OUTER ITERATIONS 
       AND A TOTAL OF          9 INNER ITERATIONS.
    ------------------------------------------------

 NO OUTPUT CONTROL FOR STRESS PERIOD    7   TIME STEP   28
 
 SOLVING FOR HEAD 
                                                   Max.-Head-Change                         Max.-Flux-Residual
  Residual-Control   Outer-Iter.   Inner-Iter.     Column Row Layer    Maximum-Head-Change  Column Row Layer    Maximum-Flux-Residual          L2-NORM 
          0                 1           2             5    6     1       0.3514439927E-01       5    8    1         0.1909998746E+01      0.4557993347E+01
          0                 2           2             4    7     1      -0.7196554772E-01       5    6    1        -0.3935930029E+01      0.9571208219E+01
          0                 3           2             5    8     1       0.4921309108E-02       5    8    1         0.2789834413E+00      0.6714161615E+00
          0                 4           2             5    8     1      -0.1958235976E-03       5    8    1        -0.1141044532E-01      0.2746097494E-01
          0                 5           1             5    8     1       0.2414589785E-05       5    8    1         0.1446054994E-03      0.3480171254E-03

    ------------------------------------------------
       NWT REQUIRED            5 OUTER ITERATIONS 
       AND A TOTAL OF          9 INNER ITERATIONS.
    ------------------------------------------------

 NO OUTPUT CONTROL FOR STRESS PERIOD    7   TIME STEP   29
 
 SOLVING FOR HEAD 
                                                   Max.-Head-Change                         Max.-Flux-Residual
  Residual-Control   Outer-Iter.   Inner-Iter.     Column Row Layer    Maximum-Head-Change  Column Row Layer    Maximum-Flux-Residual          L2-NORM 
          0                 1           2             5    6     1       0.3556922857E-01       5    8    1         0.1933628129E+01      0.4627529956E+01
          0                 2           2             4    7     1      -0.7201421809E-01       5    8    1        -0.3938335089E+01      0.9577598712E+01
          0                 3           2             4    7     1       0.4903397965E-02       5    8    1         0.2756558303E+00      0.6703638216E+00
          0                 4           2             4    7     1      -0.1951109041E-03       5    8    1        -0.1127434510E-01      0.2741792713E-01
          0                 5           1             4    7     1       0.2405801997E-05       5    8    1         0.1428806909E-03      0.3474709354E-03

    ------------------------------------------------
       NWT REQUIRED            5 OUTER ITERATIONS 
       AND A TOTAL OF          9 INNER ITERATIONS.
    ------------------------------------------------

 NO OUTPUT CONTROL FOR STRESS PERIOD    7   TIME STEP   30



 STREAM LISTING     PERIOD      7   STEP       30

 LAYER ROW COL. STREAM  RCH.  FLOW INTO     FLOW TO   FLOW OUT OF   OVRLND.     DIRECT     STREAM       STREAM     STREAM     STREAM   STREAMBED  STREAMBED
                SEG.NO.  NO.  STRM. RCH.    AQUIFER    STRM. RCH.    RUNOFF     PRECIP       ET          HEAD       DEPTH      WIDTH   CONDCTNC.   GRADIENT

   1    1    1     1     1    7.6939E+01  4.2690E-01   7.6512E+01  0.000E+00  0.000E+00  0.000E+00  1.09476E+03  1.708E+00  2.015E+01  9.068E-02  1.569E+00
   1    2    2     1     2    7.6512E+01  6.6216E-01   7.5850E+01  0.000E+00  0.000E+00  0.000E+00  1.08976E+03  1.705E+00  2.010E+01  1.407E-01  1.568E+00
   1    3    3     1     3    7.5850E+01  5.6572E-01   7.5284E+01  0.000E+00  0.000E+00  0.000E+00  1.08412E+03  1.703E+00  2.005E+01  1.203E-01  1.568E+00
   1    3    4     1     4    7.5284E+01  5.2177E-01   7.4762E+01  0.000E+00  0.000E+00  0.000E+00  1.07911E+03  1.700E+00  2.000E+01  1.110E-01  1.567E+00
   1    4    5     2     1    7.2762E+01  4.1250E-01   7.2350E+01  0.000E+00  0.000E+00  0.000E+00  1.07422E+03  2.288E+00  1.200E+01  7.800E-02  1.763E+00
   1    5    6     2     2    7.2350E+01  3.1689E-01   7.2033E+01  0.000E+00  0.000E+00  0.000E+00  1.06879E+03  2.282E+00  1.200E+01  6.000E-02  1.761E+00
   1    6    6     2     3    7.2033E+01  3.1653E-01   7.1717E+01  0.000E+00  0.000E+00  0.000E+00  1.06407E+03  2.276E+00  1.200E+01  6.000E-02  1.759E+00
   1    7    6     2     4    7.1717E+01  3.1617E-01   7.1400E+01  0.000E+00  0.000E+00  0.000E+00  1.05934E+03  2.270E+00  1.200E+01  6.000E-02  1.757E+00
   1    8    6     2     5    7.1400E+01  3.1581E-01   7.1085E+01  0.000E+00  0.000E+00  0.000E+00  1.05462E+03  2.264E+00  1.200E+01  6.000E-02  1.755E+00
   1    3    5     3     1    2.0000E+00  2.8252E-01   1.7175E+00  0.000E+00  0.000E+00  0.000E+00  1.07555E+03  1.909E+00  9.636E+00  7.227E-02  1.955E+00
   1    3    6     3     2    1.7175E+00  2.4905E-01   1.4684E+00  0.000E+00  0.000E+00  0.000E+00  1.07264E+03  1.727E+00  8.909E+00  6.682E-02  1.864E+00
   1    3    7     3     3    1.4684E+00  1.9718E-01   1.2712E+00  0.000E+00  0.000E+00  0.000E+00  1.06987E+03  1.555E+00  8.218E+00  5.547E-02  1.777E+00
   1    4    8     3     4    1.2712E+00  2.2567E-01   1.0456E+00  0.000E+00  0.000E+00  0.000E+00  1.06682E+03  1.364E+00  7.455E+00  6.709E-02  1.682E+00
   1    5    8     3     5    1.0456E+00  1.5790E-01   8.8768E-01  0.000E+00  0.000E+00  0.000E+00  1.06362E+03  1.164E+00  6.655E+00  4.991E-02  1.582E+00
   1    6    8     3     6    8.8768E-01  5.5980E-02   8.3170E-01  0.000E+00  0.000E+00  0.000E+00  1.06158E+03  1.036E+00  6.145E+00  1.844E-02  1.518E+00
   1    5   10     4     1    1.0000E+01  9.0919E-02   9.9091E+00  0.000E+00  0.000E+00  0.000E+00  1.07836E+03  6.368E-01  1.000E+01  2.500E-02  1.212E+00
   1    5    9     4     2    9.9091E+00  1.8158E-01   9.7275E+00  0.000E+00  0.000E+00  0.000E+00  1.07154E+03  6.315E-01  1.000E+01  5.000E-02  1.211E+00
   1    6    8     4     3    9.7275E+00  1.2689E-01   9.6006E+00  0.000E+00  0.000E+00  0.000E+00  1.06381E+03  6.256E-01  1.000E+01  3.500E-02  1.209E+00
   1    6    8     5     1    1.0432E+01  2.2686E-01   1.0205E+01  0.000E+00  0.000E+00  0.000E+00  1.05868E+03  6.790E-01  1.542E+01  6.166E-02  1.226E+00
   1    7    7     5     2    1.0205E+01  2.7894E-01   9.9265E+00  0.000E+00  0.000E+00  0.000E+00  1.05417E+03  6.732E-01  1.519E+01  7.594E-02  1.224E+00
   1    8    7     5     3    9.9265E+00  1.9221E-01   9.7343E+00  0.000E+00  0.000E+00  0.000E+00  1.04992E+03  6.676E-01  1.497E+01  5.241E-02  1.223E+00
   1    8    6     5     4    9.7343E+00  1.3577E-01   9.5985E+00  0.000E+00  0.000E+00  0.000E+00  1.04691E+03  6.637E-01  1.482E+01  3.706E-02  1.221E+00
   1    9    6     6     1    8.0683E+01  3.2780E-01   8.0355E+01  0.000E+00  0.000E+00  0.000E+00  1.04519E+03  2.463E+00  1.200E+01  6.000E-02  1.821E+00
   1   10    7     6     2    8.0355E+01  3.2743E-01   8.0028E+01  0.000E+00  0.000E+00  0.000E+00  1.04064E+03  2.457E+00  1.200E+01  6.000E-02  1.819E+00
   1   11    7     6     3    8.0028E+01  3.2707E-01   7.9701E+01  0.000E+00  0.000E+00  0.000E+00  1.03609E+03  2.451E+00  1.200E+01  6.000E-02  1.817E+00
   1   12    7     6     4    7.9701E+01  3.2671E-01   7.9374E+01  0.000E+00  0.000E+00  0.000E+00  1.03154E+03  2.445E+00  1.200E+01  6.000E-02  1.815E+00
   1   13    7     6     5    7.9374E+01  2.6851E-02   7.9347E+01  0.000E+00  0.000E+00  0.000E+00  1.02835E+03  2.442E+00  1.200E+01  2.400E-02  3.729E-01
   1   14    9     7     1    1.5000E+02  1.3318E+00   1.4867E+02  0.000E+00  0.000E+00  0.000E+00  1.03987E+03  2.288E+00  5.529E+01  5.593E-01  7.937E-01
   1   13    8     7     2    1.4867E+02  1.8024E+00   1.4687E+02  0.000E+00  0.000E+00  0.000E+00  1.03478E+03  2.279E+00  5.526E+01  6.148E-01  9.773E-01
   1   13    7     7     3    1.4687E+02  1.3727E+00   1.4549E+02  0.000E+00  0.000E+00  0.000E+00  1.02969E+03  2.271E+00  5.522E+01  5.585E-01  8.193E-01
   1   13    6     8     1    2.2484E+02  1.0256E+00   2.2381E+02  0.000E+00  0.000E+00  0.000E+00  1.02515E+03  3.276E+00  4.750E+01  4.840E-01  7.063E-01
   1   13    5     8     2    2.2381E+02  2.0293E-01   2.2361E+02  0.000E+00  0.000E+00  0.000E+00  1.01890E+03  3.272E+00  4.745E+01  4.835E-01  1.399E-01
   1   13    4     8     3    2.2361E+02 -2.0940E+00   2.2571E+02  0.000E+00  0.000E+00  0.000E+00  1.01265E+03  3.278E+00  4.752E+01  4.843E+00 -1.441E-01
   1   13    3     8     4    2.2571E+02 -3.2525E+00   2.2896E+02  0.000E+00  0.000E+00  0.000E+00  1.00642E+03  3.292E+00  4.774E+01  4.864E+00 -2.229E-01
   1   13    2     8     5    2.2896E+02 -2.6238E+00   2.3158E+02  0.000E+00  0.000E+00  0.000E+00  1.00018E+03  3.308E+00  4.797E+01  4.888E+00 -1.789E-01
   1   13    1     8     6    2.3158E+02 -2.0372E+00   2.3362E+02  0.000E+00  0.000E+00  0.000E+00  9.95196E+02  3.321E+00  4.815E+01  2.944E+00 -2.307E-01





UNSATURATED ZONE PACKAGE VOLUMETRIC BUDGET FOR  TIME STEP    30 STRESS PERIOD    7
  ------------------------------------------------------------------------------



     CUMULATIVE VOLUMES      L**3       RATES FOR THIS TIME STEP      L**3/T
     ------------------                 ------------------------

           IN:                                      IN:
           ---                                      ---
        INFILTRATION =   101975353.8959          INFILTRATION =          23.3175

          OUT:                                     OUT:
          ----                                     ----
              UZF ET =   101898762.9483                UZF ET =          23.3175
        UZF RECHARGE =       73224.0000          UZF RECHARGE =       0.0000E+00

            IN - OUT =        3366.9476              IN - OUT =       0.0000E+00

          STORAGE:                                 STORAGE:
          --------                                 --------
      STORAGE CHANGE =        3366.9921        STORAGE CHANGE =       3.3425E-12

 PERCENT DISCREPANCY IS DIFFERENCE BETWEEN IN-OUT MINUS CHANGE IN STORAGE
 DIVIDED BY THE AVERAGE OF IN AND OUT TIMES 100

 PERCENT DISCREPANCY =           0.00     PERCENT DISCREPANCY =           0.00






1
  VOLUMETRIC BUDGET FOR AGRICULTURAL FIELDS AT  END OF TIME STEP   30, STRESS PERIOD   7
  ------------------------------------------------------------------------------

     CUMULATIVE VOLUMES      L**3       RATES FOR THIS TIME STEP      L**3/T
     ------------------                 ------------------------

           IN:                                      IN:
           ---                                      ---
               AG WELLS  =    88528632.0000                 AG WELLS  =          22.4700
      DIVERSION SEGMENTS =           0.0000        DIVERSION SEGMENTS =           0.0000
       IRRIGATION PONDS  =           0.0000         IRRIGATION PONDS  =           0.0000
           GW IRRIGATION =           0.0000             GW IRRIGATION =           0.0000
           SW IRRIGATION =           0.0000             SW IRRIGATION =           0.0000
        SYSTEM LOSSES GW =           0.0000          SYSTEM LOSSES GW =           0.0000
        SYSTEM LOSSES SW =           0.0000          SYSTEM LOSSES SW =           0.0000

                TOTAL IN =    88528632.0000                  TOTAL IN =          22.4700

          OUT:                                     OUT:
          ----                                     ----
               AG WELLS  =           0.0000                 AG WELLS  =           0.0000
      DIVERSION SEGMENTS =           0.0000        DIVERSION SEGMENTS =           0.0000
       IRRIGATION PONDS  =           0.0000         IRRIGATION PONDS  =           0.0000
           GW IRRIGATION =    88528632.0000             GW IRRIGATION =          22.4700
           SW IRRIGATION =           0.0000             SW IRRIGATION =           0.0000
        SYSTEM LOSSES GW =           0.0000          SYSTEM LOSSES GW =           0.0000
        SYSTEM LOSSES SW =           0.0000          SYSTEM LOSSES SW =           0.0000

               TOTAL OUT =    88528632.0000                 TOTAL OUT =          22.4700

                IN - OUT =           0.0000                  IN - OUT =           0.0000

     PERCENT DISCREPANCY =           0.00         PERCENT DISCREPANCY =           0.00



1
  VOLUMETRIC BUDGET FOR ENTIRE MODEL AT END OF TIME STEP   30, STRESS PERIOD   7
  ------------------------------------------------------------------------------

     CUMULATIVE VOLUMES      L**3       RATES FOR THIS TIME STEP      L**3/T
     ------------------                 ------------------------

           IN:                                      IN:
           ---                                      ---
             STORAGE     =    94422960.0000               STORAGE     =          22.0170
       CONSTANT HEAD     =           0.0000         CONSTANT HEAD     =           0.0000
     HEAD DEP BOUNDS     =     4529104.5000       HEAD DEP BOUNDS     =           0.2855
      STREAM LEAKAGE     =   202204496.0000        STREAM LEAKAGE     =          13.3273
        UZF RECHARGE     =       73223.9531          UZF RECHARGE     =           0.0000
               GW ET     =           0.0000                 GW ET     =           0.0000
     SURFACE LEAKAGE     =           0.0000       SURFACE LEAKAGE     =           0.0000
           AG WELLS      =           0.0000             AG WELLS      =           0.0000

                TOTAL IN =   301229760.0000                  TOTAL IN =          35.6297

          OUT:                                     OUT:
          ----                                     ----
             STORAGE     =    41762440.0000               STORAGE     =           1.5739
       CONSTANT HEAD     =           0.0000         CONSTANT HEAD     =           0.0000
     HEAD DEP BOUNDS     =     4674106.0000       HEAD DEP BOUNDS     =           0.2997
      STREAM LEAKAGE     =   160347632.0000        STREAM LEAKAGE     =          10.0076
        UZF RECHARGE     =           0.0000          UZF RECHARGE     =           0.0000
               GW ET     =     5920987.5000                 GW ET     =           1.2785
     SURFACE LEAKAGE     =           0.0000       SURFACE LEAKAGE     =           0.0000
           AG WELLS      =    88528632.0000             AG WELLS      =          22.4700

               TOTAL OUT =   301233792.0000                 TOTAL OUT =          35.6297

                IN - OUT =       -4032.0000                  IN - OUT =       1.5259E-05

     PERCENT DISCREPANCY =          -0.00         PERCENT DISCREPANCY =           0.00






         TIME SUMMARY AT END OF TIME STEP   30 IN STRESS PERIOD    7
                    SECONDS     MINUTES      HOURS       DAYS        YEARS
                    -----------------------------------------------------------
   TIME STEP LENGTH  87667.      1461.1      24.352      1.0147     2.77799E-03
 STRESS PERIOD TIME 2.63000E+06  43833.      730.56      30.440     8.33397E-02
         TOTAL TIME 1.58664E+07 2.64440E+05  4407.3      183.64     0.50278    
1
1
                            STRESS PERIOD NO.    8, LENGTH =   2630000.    
                            -----------------------------------------------

                              NUMBER OF TIME STEPS =    30

                               MULTIPLIER FOR DELT =     1.000

                            INITIAL TIME STEP SIZE =   87666.66    

 REUSING NON-PARAMETER GHB CELLS FROM LAST STRESS PERIOD

      2 GHB CELLS

 REUSING STREAM SEGMENT DATA FROM LAST STRESS PERIOD



            AREAL INFILTRATION RATE
 READING ON UNIT   19 WITH FORMAT: (FREE)              

            1           2           3           4           5           6           7           8           9          10
 ........................................................................................................................
   1   1.0000E-10  2.0000E-10   0.000       0.000       0.000       0.000       0.000       0.000       0.000       0.000    
   2   2.0000E-10  1.0000E-10  2.0000E-10   0.000       0.000      8.0000E-10  8.0000E-10  5.0000E-10   0.000       0.000    
   3    0.000      5.0000E-10  1.0000E-10  1.0000E-10  8.0000E-10  8.0000E-10  5.0000E-10  5.0000E-10   0.000       0.000    
   4   8.0000E-10  5.0000E-10  1.0000E-10  1.0000E-10  1.0000E-10  1.0000E-10  1.0000E-10  1.0000E-10  2.0000E-10   0.000    
   5   8.0000E-10  5.0000E-10  1.0000E-10  1.0000E-10  1.0000E-10  1.0000E-10  1.0000E-10  1.0000E-10  1.0000E-10  1.0000E-10
   6   8.0000E-10  5.0000E-10  5.0000E-10  2.0000E-10  2.0000E-10  1.0000E-10  1.0000E-10  1.0000E-10  1.0000E-10  5.0000E-10
   7   8.0000E-10  5.0000E-10  5.0000E-10  2.0000E-10  2.0000E-10  1.0000E-10  1.0000E-10  2.0000E-10  2.0000E-10   0.000    
   8    0.000      5.0000E-10  5.0000E-10  2.0000E-10  2.0000E-10  1.0000E-10  1.0000E-10  2.0000E-10  5.0000E-10   0.000    
   9    0.000      5.0000E-10  5.0000E-10  2.0000E-10  2.0000E-10  1.0000E-10  1.0000E-10  2.0000E-10  5.0000E-10   0.000    
  10    0.000      5.0000E-10  5.0000E-10  2.0000E-10  2.0000E-10  1.0000E-10  1.0000E-10  2.0000E-10  5.0000E-10  8.0000E-10
  11    0.000      1.0000E-10  1.0000E-10  1.0000E-10  1.0000E-10  1.0000E-10  1.0000E-10  2.0000E-10  5.0000E-10   0.000    
  12   1.0000E-10  1.0000E-10  1.0000E-10  1.0000E-10  1.0000E-10  1.0000E-10  1.0000E-10  1.0000E-10  2.0000E-10   0.000    
  13   1.0000E-10  1.0000E-10  2.0000E-10  2.0000E-10  2.0000E-10  2.0000E-10  2.0000E-10  1.0000E-10  1.0000E-10   0.000    
  14    0.000      2.0000E-10  5.0000E-10  5.0000E-10  5.0000E-10  5.0000E-10  5.0000E-10  2.0000E-10  1.0000E-10   0.000    
  15    0.000       0.000      8.0000E-10  8.0000E-10  8.0000E-10  8.0000E-10   0.000       0.000       0.000       0.000    

                  ET RATE =  4.000000E-07

 USING ET EXTINCTION DEPTH FROM PREVIOUS STRESS PERIOD. CURRENT PERIOD IS:       8

 USING EXTINCTION WATER CONTENT FROM PREVIOUS STRESS PERIOD. CURRENT PERIOD IS:       8

 USING AIR ENTRY PRESSURE FROM PREVIOUS STRESS PERIOD. CURRENT PERIOD IS:       8

 USING ROOT PRESSURE HEAD FROM PREVIOUS STRESS PERIOD. CURRENT PERIOD IS:       8

 USING ROOT ACTIVITY FROM PREVIOUS STRESS PERIOD. CURRENT PERIOD IS:       8

 PROCESSING AG STRESS PERIOD DATA

 READING AG STRESS PERIOD DATA

 READING IRRIGATION WELL

 NO IRRPOND OR REUSING IRRPOND DATA FROM LAST STRESS PERIOD

 END PROCESSING AG STRESS PERIOD DATA OPTIONS
 
 SOLVING FOR HEAD 
                                                   Max.-Head-Change                         Max.-Flux-Residual
  Residual-Control   Outer-Iter.   Inner-Iter.     Column Row Layer    Maximum-Head-Change  Column Row Layer    Maximum-Flux-Residual          L2-NORM 
          0                 1           2             4    7     1      -0.1679663219E+00       4    7    1        -0.8783352797E+01      0.2062284028E+02
          0                 2           2             6    7     1       0.1560929891E-02       4   13    1         0.1203990761E+00      0.2955044468E+00
          0                 3           2             4    7     1      -0.1177483382E-01       4    7    1        -0.6497832262E+00      0.1584105593E+01
          0                 4           2             4    7     1      -0.9003712512E-02       5    8    1        -0.4969920484E+00      0.1217171706E+01
          0                 5           2             4    7     1       0.3583532555E-03       5    8    1         0.2033195112E-01      0.4979449862E-01
          0                 6           1             4    7     1      -0.4422033644E-05       5    8    1        -0.2578657395E-03      0.6315335107E-03

    ------------------------------------------------
       NWT REQUIRED            6 OUTER ITERATIONS 
       AND A TOTAL OF         11 INNER ITERATIONS.
    ------------------------------------------------

 OUTPUT CONTROL FOR STRESS PERIOD    8   TIME STEP    1
    PRINT BUDGET
    SAVE BUDGET
 UBDSV1 SAVING "         STORAGE" ON UNIT 102 AT TIME STEP 1, STRESS PERIOD 8
 UBDSV2 SAVING "   CONSTANT HEAD" ON UNIT 102 AT TIME STEP 1, STRESS PERIOD 8
 UBDSV1 SAVING "FLOW RIGHT FACE " ON UNIT 102 AT TIME STEP 1, STRESS PERIOD 8
 UBDSV1 SAVING "FLOW FRONT FACE " ON UNIT 102 AT TIME STEP 1, STRESS PERIOD 8

  HEAD DEP BOUNDS   PERIOD    8   STEP     1
 BOUNDARY      1   LAYER   1   ROW    13   COL     1   RATE   -0.299663    
 BOUNDARY      2   LAYER   1   ROW    14   COL     9   RATE    0.285485    



 STREAM LISTING     PERIOD      8   STEP        1

 LAYER ROW COL. STREAM  RCH.  FLOW INTO     FLOW TO   FLOW OUT OF   OVRLND.     DIRECT     STREAM       STREAM     STREAM     STREAM   STREAMBED  STREAMBED
                SEG.NO.  NO.  STRM. RCH.    AQUIFER    STRM. RCH.    RUNOFF     PRECIP       ET          HEAD       DEPTH      WIDTH   CONDCTNC.   GRADIENT

   1    1    1     1     1    7.5000E+01  4.2232E-01   7.4578E+01  0.000E+00  0.000E+00  0.000E+00  1.09475E+03  1.698E+00  1.998E+01  8.990E-02  1.566E+00
   1    2    2     1     2    7.4578E+01  6.5422E-01   7.3924E+01  0.000E+00  0.000E+00  0.000E+00  1.08975E+03  1.692E+00  1.992E+01  1.394E-01  1.564E+00
   1    3    3     1     3    7.3924E+01  5.5813E-01   7.3366E+01  0.000E+00  0.000E+00  0.000E+00  1.08410E+03  1.685E+00  1.985E+01  1.191E-01  1.562E+00
   1    3    4     1     4    7.3366E+01  5.1412E-01   7.2852E+01  0.000E+00  0.000E+00  0.000E+00  1.07909E+03  1.679E+00  1.980E+01  1.099E-01  1.560E+00
   1    4    5     2     1    7.0852E+01  4.0967E-01   7.0442E+01  0.000E+00  0.000E+00  0.000E+00  1.07419E+03  2.252E+00  1.200E+01  7.800E-02  1.751E+00
   1    5    6     2     2    7.0442E+01  3.1471E-01   7.0127E+01  0.000E+00  0.000E+00  0.000E+00  1.06875E+03  2.245E+00  1.200E+01  6.000E-02  1.748E+00
   1    6    6     2     3    7.0127E+01  3.1435E-01   6.9813E+01  0.000E+00  0.000E+00  0.000E+00  1.06403E+03  2.239E+00  1.200E+01  6.000E-02  1.746E+00
   1    7    6     2     4    6.9813E+01  3.1399E-01   6.9499E+01  0.000E+00  0.000E+00  0.000E+00  1.05931E+03  2.233E+00  1.200E+01  6.000E-02  1.744E+00
   1    8    6     2     5    6.9499E+01  3.1363E-01   6.9185E+01  0.000E+00  0.000E+00  0.000E+00  1.05459E+03  2.227E+00  1.200E+01  6.000E-02  1.742E+00
   1    3    5     3     1    2.0000E+00  2.8252E-01   1.7175E+00  0.000E+00  0.000E+00  0.000E+00  1.07555E+03  1.909E+00  9.636E+00  7.227E-02  1.955E+00
   1    3    6     3     2    1.7175E+00  2.4905E-01   1.4684E+00  0.000E+00  0.000E+00  0.000E+00  1.07264E+03  1.727E+00  8.909E+00  6.682E-02  1.864E+00
   1    3    7     3     3    1.4684E+00  1.9718E-01   1.2712E+00  0.000E+00  0.000E+00  0.000E+00  1.06987E+03  1.555E+00  8.218E+00  5.547E-02  1.777E+00
   1    4    8     3     4    1.2712E+00  2.2567E-01   1.0456E+00  0.000E+00  0.000E+00  0.000E+00  1.06682E+03  1.364E+00  7.455E+00  6.709E-02  1.682E+00
   1    5    8     3     5    1.0456E+00  1.5790E-01   8.8768E-01  0.000E+00  0.000E+00  0.000E+00  1.06362E+03  1.164E+00  6.655E+00  4.991E-02  1.582E+00
   1    6    8     3     6    8.8768E-01  5.5980E-02   8.3170E-01  0.000E+00  0.000E+00  0.000E+00  1.06158E+03  1.036E+00  6.145E+00  1.844E-02  1.518E+00
   1    5   10     4     1    1.0000E+01  9.0919E-02   9.9091E+00  0.000E+00  0.000E+00  0.000E+00  1.07836E+03  6.368E-01  1.000E+01  2.500E-02  1.212E+00
   1    5    9     4     2    9.9091E+00  1.8158E-01   9.7275E+00  0.000E+00  0.000E+00  0.000E+00  1.07154E+03  6.315E-01  1.000E+01  5.000E-02  1.211E+00
   1    6    8     4     3    9.7275E+00  1.2689E-01   9.6006E+00  0.000E+00  0.000E+00  0.000E+00  1.06381E+03  6.256E-01  1.000E+01  3.500E-02  1.209E+00
   1    6    8     5     1    1.0432E+01  2.2686E-01   1.0205E+01  0.000E+00  0.000E+00  0.000E+00  1.05868E+03  6.790E-01  1.542E+01  6.166E-02  1.226E+00
   1    7    7     5     2    1.0205E+01  2.7894E-01   9.9265E+00  0.000E+00  0.000E+00  0.000E+00  1.05417E+03  6.732E-01  1.519E+01  7.594E-02  1.224E+00
   1    8    7     5     3    9.9265E+00  1.9221E-01   9.7343E+00  0.000E+00  0.000E+00  0.000E+00  1.04992E+03  6.676E-01  1.497E+01  5.241E-02  1.223E+00
   1    8    6     5     4    9.7343E+00  1.3577E-01   9.5985E+00  0.000E+00  0.000E+00  0.000E+00  1.04691E+03  6.637E-01  1.482E+01  3.706E-02  1.221E+00
   1    9    6     6     1    7.8784E+01  3.2569E-01   7.8458E+01  0.000E+00  0.000E+00  0.000E+00  1.04516E+03  2.428E+00  1.200E+01  6.000E-02  1.809E+00
   1   10    7     6     2    7.8458E+01  3.2533E-01   7.8133E+01  0.000E+00  0.000E+00  0.000E+00  1.04060E+03  2.422E+00  1.200E+01  6.000E-02  1.807E+00
   1   11    7     6     3    7.8133E+01  3.2497E-01   7.7808E+01  0.000E+00  0.000E+00  0.000E+00  1.03605E+03  2.416E+00  1.200E+01  6.000E-02  1.805E+00
   1   12    7     6     4    7.7808E+01  3.2461E-01   7.7483E+01  0.000E+00  0.000E+00  0.000E+00  1.03150E+03  2.410E+00  1.200E+01  6.000E-02  1.803E+00
   1   13    7     6     5    7.7483E+01  2.5997E-02   7.7457E+01  0.000E+00  0.000E+00  0.000E+00  1.02832E+03  2.407E+00  1.200E+01  2.400E-02  3.611E-01
   1   14    9     7     1    1.5000E+02  1.3318E+00   1.4867E+02  0.000E+00  0.000E+00  0.000E+00  1.03987E+03  2.288E+00  5.529E+01  5.593E-01  7.937E-01
   1   13    8     7     2    1.4867E+02  1.8022E+00   1.4687E+02  0.000E+00  0.000E+00  0.000E+00  1.03478E+03  2.279E+00  5.526E+01  6.148E-01  9.772E-01
   1   13    7     7     3    1.4687E+02  1.3725E+00   1.4549E+02  0.000E+00  0.000E+00  0.000E+00  1.02969E+03  2.271E+00  5.522E+01  5.585E-01  8.192E-01
   1   13    6     8     1    2.2295E+02  1.0174E+00   2.2193E+02  0.000E+00  0.000E+00  0.000E+00  1.02514E+03  3.265E+00  4.735E+01  4.825E-01  7.028E-01
   1   13    5     8     2    2.2193E+02  1.9745E-01   2.2174E+02  0.000E+00  0.000E+00  0.000E+00  1.01889E+03  3.262E+00  4.730E+01  4.820E-01  1.366E-01
   1   13    4     8     3    2.2174E+02 -2.0673E+00   2.2380E+02  0.000E+00  0.000E+00  0.000E+00  1.01264E+03  3.267E+00  4.737E+01  4.828E+00 -1.427E-01
   1   13    3     8     4    2.2380E+02 -3.2221E+00   2.2703E+02  0.000E+00  0.000E+00  0.000E+00  1.00641E+03  3.282E+00  4.758E+01  4.849E+00 -2.215E-01
   1   13    2     8     5    2.2703E+02 -2.6521E+00   2.2968E+02  0.000E+00  0.000E+00  0.000E+00  1.00017E+03  3.298E+00  4.782E+01  4.873E+00 -1.814E-01
   1   13    1     8     6    2.2968E+02 -2.0559E+00   2.3173E+02  0.000E+00  0.000E+00  0.000E+00  9.95185E+02  3.310E+00  4.800E+01  2.935E+00 -2.335E-01



 UBDSV3 SAVING "           GW ET" ON UNIT  61 AT TIME STEP 1, STRESS PERIOD 8
 UBDSV3 SAVING "    UZF RECHARGE" ON UNIT  61 AT TIME STEP 1, STRESS PERIOD 8
 UBDSV3 SAVING " SURFACE LEAKAGE" ON UNIT  61 AT TIME STEP 1, STRESS PERIOD 8
 UBDSV3 SAVING "       HORT+DUNN" ON UNIT  61 AT TIME STEP 1, STRESS PERIOD 8
 UBDSV3 SAVING "  STORAGE CHANGE" ON UNIT  61 AT TIME STEP 1, STRESS PERIOD 8


UNSATURATED ZONE PACKAGE VOLUMETRIC BUDGET FOR  TIME STEP     1 STRESS PERIOD    8
  ------------------------------------------------------------------------------



     CUMULATIVE VOLUMES      L**3       RATES FOR THIS TIME STEP      L**3/T
     ------------------                 ------------------------

           IN:                                      IN:
           ---                                      ---
        INFILTRATION =   108346834.6418          INFILTRATION =          72.6785

          OUT:                                     OUT:
          ----                                     ----
              UZF ET =   107004892.4442                UZF ET =          58.2448
        UZF RECHARGE =       73224.0000          UZF RECHARGE =       0.0000E+00

            IN - OUT =     1268718.1976              IN - OUT =          14.4337

          STORAGE:                                 STORAGE:
          --------                                 --------
      STORAGE CHANGE =     1268718.4083        STORAGE CHANGE =          14.4337

 PERCENT DISCREPANCY IS DIFFERENCE BETWEEN IN-OUT MINUS CHANGE IN STORAGE
 DIVIDED BY THE AVERAGE OF IN AND OUT TIMES 100

 PERCENT DISCREPANCY =           0.00     PERCENT DISCREPANCY =           0.00






 

            AG WELLS      PERIOD    8   STEP   1
 AG WELL      1   LAYER   1   ROW     6   COL     4   RATE    -11.9718    
 AG WELL      2   LAYER   1   ROW     6   COL     5   RATE    -11.9718    
 AG WELL      3   LAYER   1   ROW     7   COL     4   RATE    -11.9718    
 AG WELL      4   LAYER   1   ROW     7   COL     5   RATE    -11.9718    
 AG WELL      5   LAYER   1   ROW     8   COL     4   RATE    -11.9718    
 AG WELL      6   LAYER   1   ROW     8   COL     5   RATE    -11.9718    
 
 

        GW IRRIGATION     PERIOD    8   STEP   1
 AG WELL      1   ROW     6   COL     4   RATE     11.9718    
 AG WELL      2   ROW     6   COL     5   RATE     11.9718    
 AG WELL      3   ROW     7   COL     4   RATE     11.9718    
 AG WELL      4   ROW     7   COL     5   RATE     11.9718    
 AG WELL      5   ROW     8   COL     4   RATE     11.9718    
 AG WELL      6   ROW     8   COL     5   RATE     11.9718    
 
1
  VOLUMETRIC BUDGET FOR AGRICULTURAL FIELDS AT  END OF TIME STEP    1, STRESS PERIOD   8
  ------------------------------------------------------------------------------

     CUMULATIVE VOLUMES      L**3       RATES FOR THIS TIME STEP      L**3/T
     ------------------                 ------------------------

           IN:                                      IN:
           ---                                      ---
               AG WELLS  =    94825816.0000                 AG WELLS  =          71.8310
      DIVERSION SEGMENTS =           0.0000        DIVERSION SEGMENTS =           0.0000
       IRRIGATION PONDS  =           0.0000         IRRIGATION PONDS  =           0.0000
           GW IRRIGATION =           0.0000             GW IRRIGATION =           0.0000
           SW IRRIGATION =           0.0000             SW IRRIGATION =           0.0000
        SYSTEM LOSSES GW =           0.0000          SYSTEM LOSSES GW =           0.0000
        SYSTEM LOSSES SW =           0.0000          SYSTEM LOSSES SW =           0.0000

                TOTAL IN =    94825816.0000                  TOTAL IN =          71.8310

          OUT:                                     OUT:
          ----                                     ----
               AG WELLS  =           0.0000                 AG WELLS  =           0.0000
      DIVERSION SEGMENTS =           0.0000        DIVERSION SEGMENTS =           0.0000
       IRRIGATION PONDS  =           0.0000         IRRIGATION PONDS  =           0.0000
           GW IRRIGATION =    94825816.0000             GW IRRIGATION =          71.8310
           SW IRRIGATION =           0.0000             SW IRRIGATION =           0.0000
        SYSTEM LOSSES GW =           0.0000          SYSTEM LOSSES GW =           0.0000
        SYSTEM LOSSES SW =           0.0000          SYSTEM LOSSES SW =           0.0000

               TOTAL OUT =    94825816.0000                 TOTAL OUT =          71.8310

                IN - OUT =           0.0000                  IN - OUT =           0.0000

     PERCENT DISCREPANCY =           0.00         PERCENT DISCREPANCY =           0.00



1
  VOLUMETRIC BUDGET FOR ENTIRE MODEL AT END OF TIME STEP    1, STRESS PERIOD   8
  ------------------------------------------------------------------------------

     CUMULATIVE VOLUMES      L**3       RATES FOR THIS TIME STEP      L**3/T
     ------------------                 ------------------------

           IN:                                      IN:
           ---                                      ---
             STORAGE     =   100814936.0000               STORAGE     =          72.9123
       CONSTANT HEAD     =           0.0000         CONSTANT HEAD     =           0.0000
     HEAD DEP BOUNDS     =     4554132.0000       HEAD DEP BOUNDS     =           0.2855
      STREAM LEAKAGE     =   203367344.0000        STREAM LEAKAGE     =          13.2645
        UZF RECHARGE     =       73223.9531          UZF RECHARGE     =           0.0000
               GW ET     =           0.0000                 GW ET     =           0.0000
     SURFACE LEAKAGE     =           0.0000       SURFACE LEAKAGE     =           0.0000
           AG WELLS      =           0.0000             AG WELLS      =           0.0000

                TOTAL IN =   308809632.0000                  TOTAL IN =          86.4622

          OUT:                                     OUT:
          ----                                     ----
             STORAGE     =    41894324.0000               STORAGE     =           1.5044
       CONSTANT HEAD     =           0.0000         CONSTANT HEAD     =           0.0000
     HEAD DEP BOUNDS     =     4700376.5000       HEAD DEP BOUNDS     =           0.2997
      STREAM LEAKAGE     =   161224064.0000        STREAM LEAKAGE     =           9.9973
        UZF RECHARGE     =           0.0000          UZF RECHARGE     =           0.0000
               GW ET     =     6169072.0000                 GW ET     =           2.8299
     SURFACE LEAKAGE     =           0.0000       SURFACE LEAKAGE     =           0.0000
           AG WELLS      =    94825816.0000             AG WELLS      =          71.8310

               TOTAL OUT =   308813664.0000                 TOTAL OUT =          86.4623

                IN - OUT =       -4032.0000                  IN - OUT =      -2.2888E-05

     PERCENT DISCREPANCY =          -0.00         PERCENT DISCREPANCY =          -0.00






         TIME SUMMARY AT END OF TIME STEP    1 IN STRESS PERIOD    8
                    SECONDS     MINUTES      HOURS       DAYS        YEARS
                    -----------------------------------------------------------
   TIME STEP LENGTH  87667.      1461.1      24.352      1.0147     2.77799E-03
 STRESS PERIOD TIME  87667.      1461.1      24.352      1.0147     2.77799E-03
         TOTAL TIME 1.59541E+07 2.65901E+05  4431.7      184.65     0.50555    
1
 
 SOLVING FOR HEAD 
                                                   Max.-Head-Change                         Max.-Flux-Residual
  Residual-Control   Outer-Iter.   Inner-Iter.     Column Row Layer    Maximum-Head-Change  Column Row Layer    Maximum-Flux-Residual          L2-NORM 
          0                 1           2             5    8     1       0.3277102335E-01       5    8    1         0.1795449264E+01      0.4519031404E+01
          0                 2           2             4    7     1      -0.1798454258E+00       5    8    1        -0.9745763471E+01      0.2378013587E+02
          0                 3           2             4    7     1      -0.2407157326E-02       4    7    1        -0.1293245389E+00      0.3077283281E+00
          0                 4           2             4    7     1      -0.1185472903E-01       5    8    1        -0.6367487850E+00      0.1559250688E+01
          0                 5           2             4    7     1      -0.8931609947E-02       4    7    1        -0.4793934434E+00      0.1174234479E+01
          0                 6           2             4    7     1       0.6084696856E-03       4    7    1         0.3357245844E-01      0.8222492091E-01
          0                 7           1             4    7     1      -0.2422880473E-04       4    7    1        -0.1374114391E-02      0.3365309981E-02

    ------------------------------------------------
       NWT REQUIRED            7 OUTER ITERATIONS 
       AND A TOTAL OF         13 INNER ITERATIONS.
    ------------------------------------------------

 NO OUTPUT CONTROL FOR STRESS PERIOD    8   TIME STEP    2
 
 SOLVING FOR HEAD 
                                                   Max.-Head-Change                         Max.-Flux-Residual
  Residual-Control   Outer-Iter.   Inner-Iter.     Column Row Layer    Maximum-Head-Change  Column Row Layer    Maximum-Flux-Residual          L2-NORM 
          0                 1           2             5    8     1       0.3735405298E-01       5    8    1         0.2047657186E+01      0.4962735041E+01
          0                 2           2             4    7     1      -0.1799709518E+00       5    8    1        -0.9770518456E+01      0.2382124443E+02
          0                 3           2             4    7     1      -0.2398405692E-02       4    7    1        -0.1288783336E+00      0.3049633642E+00
          0                 4           2             4    7     1      -0.1185537213E-01       5    8    1        -0.6368718724E+00      0.1559453649E+01
          0                 5           2             4    7     1      -0.8931589587E-02       4    7    1        -0.4793912636E+00      0.1174220136E+01
          0                 6           2             4    7     1       0.6084682983E-03       4    7    1         0.3357230608E-01      0.8222391940E-01
          0                 7           1             4    7     1      -0.2422874958E-04       4    7    1        -0.1374108162E-02      0.3365270854E-02

    ------------------------------------------------
       NWT REQUIRED            7 OUTER ITERATIONS 
       AND A TOTAL OF         13 INNER ITERATIONS.
    ------------------------------------------------

 NO OUTPUT CONTROL FOR STRESS PERIOD    8   TIME STEP    3
 
 SOLVING FOR HEAD 
                                                   Max.-Head-Change                         Max.-Flux-Residual
  Residual-Control   Outer-Iter.   Inner-Iter.     Column Row Layer    Maximum-Head-Change  Column Row Layer    Maximum-Flux-Residual          L2-NORM 
          0                 1           2             5    8     1       0.4169442972E-01       5    8    1         0.2286273526E+01      0.5437783965E+01
          0                 2           2             4    7     1      -0.1801111742E+00       5    8    1        -0.9794379653E+01      0.2386228589E+02
          0                 3           2             4    7     1      -0.2388627591E-02       4    7    1        -0.1283749781E+00      0.3022634769E+00
          0                 4           2             4    7     1      -0.1185608874E-01       5    8    1        -0.6369904521E+00      0.1559654846E+01
          0                 5           2             4    7     1      -0.8931565421E-02       4    7    1        -0.4793888035E+00      0.1174205404E+01
          0                 6           2             4    7     1       0.6084666522E-03       4    7    1         0.3357213409E-01      0.8222332511E-01
          0                 7           1             4    7     1      -0.2422868396E-04       4    7    1        -0.1374101140E-02      0.3365271501E-02

    ------------------------------------------------
       NWT REQUIRED            7 OUTER ITERATIONS 
       AND A TOTAL OF         13 INNER ITERATIONS.
    ------------------------------------------------

 NO OUTPUT CONTROL FOR STRESS PERIOD    8   TIME STEP    4
 
 SOLVING FOR HEAD 
                                                   Max.-Head-Change                         Max.-Flux-Residual
  Residual-Control   Outer-Iter.   Inner-Iter.     Column Row Layer    Maximum-Head-Change  Column Row Layer    Maximum-Flux-Residual          L2-NORM 
          0                 1           2             5    8     1       0.4580090492E-01       5    8    1         0.2511818069E+01      0.5913516702E+01
          0                 2           2             4    7     1      -0.1802560025E+00       5    8    1        -0.9816933656E+01      0.2390202360E+02
          0                 3           2             4    7     1      -0.2378529170E-02       4    7    1        -0.1278524891E+00      0.2996924547E+00
          0                 4           2             4    7     1      -0.1185682929E-01       5    8    1        -0.6371025094E+00      0.1559850053E+01
          0                 5           2             4    7     1      -0.8931540807E-02       4    7    1        -0.4793862494E+00      0.1174191632E+01
          0                 6           2             4    7     1       0.6084649754E-03       4    7    1         0.3357195552E-01      0.8222236367E-01
          0                 7           1             4    7     1      -0.2422861718E-04       4    7    1        -0.1374093844E-02      0.3365233971E-02

    ------------------------------------------------
       NWT REQUIRED            7 OUTER ITERATIONS 
       AND A TOTAL OF         13 INNER ITERATIONS.
    ------------------------------------------------

 OUTPUT CONTROL FOR STRESS PERIOD    8   TIME STEP    5
    PRINT BUDGET
    SAVE BUDGET
 UBDSV1 SAVING "         STORAGE" ON UNIT 102 AT TIME STEP 5, STRESS PERIOD 8
 UBDSV2 SAVING "   CONSTANT HEAD" ON UNIT 102 AT TIME STEP 5, STRESS PERIOD 8
 UBDSV1 SAVING "FLOW RIGHT FACE " ON UNIT 102 AT TIME STEP 5, STRESS PERIOD 8
 UBDSV1 SAVING "FLOW FRONT FACE " ON UNIT 102 AT TIME STEP 5, STRESS PERIOD 8

  HEAD DEP BOUNDS   PERIOD    8   STEP     5
 BOUNDARY      1   LAYER   1   ROW    13   COL     1   RATE   -0.299426    
 BOUNDARY      2   LAYER   1   ROW    14   COL     9   RATE    0.285483    



 STREAM LISTING     PERIOD      8   STEP        5

 LAYER ROW COL. STREAM  RCH.  FLOW INTO     FLOW TO   FLOW OUT OF   OVRLND.     DIRECT     STREAM       STREAM     STREAM     STREAM   STREAMBED  STREAMBED
                SEG.NO.  NO.  STRM. RCH.    AQUIFER    STRM. RCH.    RUNOFF     PRECIP       ET          HEAD       DEPTH      WIDTH   CONDCTNC.   GRADIENT

   1    1    1     1     1    7.5000E+01  4.2232E-01   7.4578E+01  0.000E+00  0.000E+00  0.000E+00  1.09475E+03  1.698E+00  1.998E+01  8.990E-02  1.566E+00
   1    2    2     1     2    7.4578E+01  6.5422E-01   7.3924E+01  0.000E+00  0.000E+00  0.000E+00  1.08975E+03  1.692E+00  1.992E+01  1.394E-01  1.564E+00
   1    3    3     1     3    7.3924E+01  5.5813E-01   7.3366E+01  0.000E+00  0.000E+00  0.000E+00  1.08410E+03  1.685E+00  1.985E+01  1.191E-01  1.562E+00
   1    3    4     1     4    7.3366E+01  5.1412E-01   7.2852E+01  0.000E+00  0.000E+00  0.000E+00  1.07909E+03  1.679E+00  1.980E+01  1.099E-01  1.560E+00
   1    4    5     2     1    7.0852E+01  4.0967E-01   7.0442E+01  0.000E+00  0.000E+00  0.000E+00  1.07419E+03  2.252E+00  1.200E+01  7.800E-02  1.751E+00
   1    5    6     2     2    7.0442E+01  3.1471E-01   7.0127E+01  0.000E+00  0.000E+00  0.000E+00  1.06875E+03  2.245E+00  1.200E+01  6.000E-02  1.748E+00
   1    6    6     2     3    7.0127E+01  3.1435E-01   6.9813E+01  0.000E+00  0.000E+00  0.000E+00  1.06403E+03  2.239E+00  1.200E+01  6.000E-02  1.746E+00
   1    7    6     2     4    6.9813E+01  3.1399E-01   6.9499E+01  0.000E+00  0.000E+00  0.000E+00  1.05931E+03  2.233E+00  1.200E+01  6.000E-02  1.744E+00
   1    8    6     2     5    6.9499E+01  3.1363E-01   6.9185E+01  0.000E+00  0.000E+00  0.000E+00  1.05459E+03  2.227E+00  1.200E+01  6.000E-02  1.742E+00
   1    3    5     3     1    2.0000E+00  2.8252E-01   1.7175E+00  0.000E+00  0.000E+00  0.000E+00  1.07555E+03  1.909E+00  9.636E+00  7.227E-02  1.955E+00
   1    3    6     3     2    1.7175E+00  2.4905E-01   1.4684E+00  0.000E+00  0.000E+00  0.000E+00  1.07264E+03  1.727E+00  8.909E+00  6.682E-02  1.864E+00
   1    3    7     3     3    1.4684E+00  1.9718E-01   1.2712E+00  0.000E+00  0.000E+00  0.000E+00  1.06987E+03  1.555E+00  8.218E+00  5.547E-02  1.777E+00
   1    4    8     3     4    1.2712E+00  2.2567E-01   1.0456E+00  0.000E+00  0.000E+00  0.000E+00  1.06682E+03  1.364E+00  7.455E+00  6.709E-02  1.682E+00
   1    5    8     3     5    1.0456E+00  1.5790E-01   8.8768E-01  0.000E+00  0.000E+00  0.000E+00  1.06362E+03  1.164E+00  6.655E+00  4.991E-02  1.582E+00
   1    6    8     3     6    8.8768E-01  5.5980E-02   8.3170E-01  0.000E+00  0.000E+00  0.000E+00  1.06158E+03  1.036E+00  6.145E+00  1.844E-02  1.518E+00
   1    5   10     4     1    1.0000E+01  9.0919E-02   9.9091E+00  0.000E+00  0.000E+00  0.000E+00  1.07836E+03  6.368E-01  1.000E+01  2.500E-02  1.212E+00
   1    5    9     4     2    9.9091E+00  1.8158E-01   9.7275E+00  0.000E+00  0.000E+00  0.000E+00  1.07154E+03  6.315E-01  1.000E+01  5.000E-02  1.211E+00
   1    6    8     4     3    9.7275E+00  1.2689E-01   9.6006E+00  0.000E+00  0.000E+00  0.000E+00  1.06381E+03  6.256E-01  1.000E+01  3.500E-02  1.209E+00
   1    6    8     5     1    1.0432E+01  2.2686E-01   1.0205E+01  0.000E+00  0.000E+00  0.000E+00  1.05868E+03  6.790E-01  1.542E+01  6.166E-02  1.226E+00
   1    7    7     5     2    1.0205E+01  2.7894E-01   9.9265E+00  0.000E+00  0.000E+00  0.000E+00  1.05417E+03  6.732E-01  1.519E+01  7.594E-02  1.224E+00
   1    8    7     5     3    9.9265E+00  1.9221E-01   9.7343E+00  0.000E+00  0.000E+00  0.000E+00  1.04992E+03  6.676E-01  1.497E+01  5.241E-02  1.223E+00
   1    8    6     5     4    9.7343E+00  1.3577E-01   9.5985E+00  0.000E+00  0.000E+00  0.000E+00  1.04691E+03  6.637E-01  1.482E+01  3.706E-02  1.221E+00
   1    9    6     6     1    7.8784E+01  3.2569E-01   7.8458E+01  0.000E+00  0.000E+00  0.000E+00  1.04516E+03  2.428E+00  1.200E+01  6.000E-02  1.809E+00
   1   10    7     6     2    7.8458E+01  3.2533E-01   7.8133E+01  0.000E+00  0.000E+00  0.000E+00  1.04060E+03  2.422E+00  1.200E+01  6.000E-02  1.807E+00
   1   11    7     6     3    7.8133E+01  3.2497E-01   7.7808E+01  0.000E+00  0.000E+00  0.000E+00  1.03605E+03  2.416E+00  1.200E+01  6.000E-02  1.805E+00
   1   12    7     6     4    7.7808E+01  3.2461E-01   7.7483E+01  0.000E+00  0.000E+00  0.000E+00  1.03150E+03  2.410E+00  1.200E+01  6.000E-02  1.803E+00
   1   13    7     6     5    7.7483E+01  2.5951E-02   7.7457E+01  0.000E+00  0.000E+00  0.000E+00  1.02832E+03  2.407E+00  1.200E+01  2.400E-02  3.604E-01
   1   14    9     7     1    1.5000E+02  1.3318E+00   1.4867E+02  0.000E+00  0.000E+00  0.000E+00  1.03987E+03  2.288E+00  5.529E+01  5.593E-01  7.937E-01
   1   13    8     7     2    1.4867E+02  1.8017E+00   1.4687E+02  0.000E+00  0.000E+00  0.000E+00  1.03478E+03  2.279E+00  5.526E+01  6.148E-01  9.769E-01
   1   13    7     7     3    1.4687E+02  1.3714E+00   1.4550E+02  0.000E+00  0.000E+00  0.000E+00  1.02969E+03  2.271E+00  5.522E+01  5.585E-01  8.185E-01
   1   13    6     8     1    2.2295E+02  1.0172E+00   2.2194E+02  0.000E+00  0.000E+00  0.000E+00  1.02514E+03  3.265E+00  4.735E+01  4.825E-01  7.028E-01
   1   13    5     8     2    2.2194E+02  1.9833E-01   2.2174E+02  0.000E+00  0.000E+00  0.000E+00  1.01889E+03  3.262E+00  4.730E+01  4.820E-01  1.372E-01
   1   13    4     8     3    2.2174E+02 -1.9497E+00   2.2369E+02  0.000E+00  0.000E+00  0.000E+00  1.01264E+03  3.267E+00  4.737E+01  4.827E+00 -1.346E-01
   1   13    3     8     4    2.2369E+02 -3.1042E+00   2.2679E+02  0.000E+00  0.000E+00  0.000E+00  1.00641E+03  3.281E+00  4.757E+01  4.848E+00 -2.135E-01
   1   13    2     8     5    2.2679E+02 -2.6097E+00   2.2940E+02  0.000E+00  0.000E+00  0.000E+00  1.00017E+03  3.296E+00  4.780E+01  4.871E+00 -1.786E-01
   1   13    1     8     6    2.2940E+02 -2.0412E+00   2.3144E+02  0.000E+00  0.000E+00  0.000E+00  9.95184E+02  3.309E+00  4.798E+01  2.933E+00 -2.319E-01



 UBDSV3 SAVING "           GW ET" ON UNIT  61 AT TIME STEP 5, STRESS PERIOD 8
 UBDSV3 SAVING "    UZF RECHARGE" ON UNIT  61 AT TIME STEP 5, STRESS PERIOD 8
 UBDSV3 SAVING " SURFACE LEAKAGE" ON UNIT  61 AT TIME STEP 5, STRESS PERIOD 8
 UBDSV3 SAVING "       HORT+DUNN" ON UNIT  61 AT TIME STEP 5, STRESS PERIOD 8
 UBDSV3 SAVING "  STORAGE CHANGE" ON UNIT  61 AT TIME STEP 5, STRESS PERIOD 8


UNSATURATED ZONE PACKAGE VOLUMETRIC BUDGET FOR  TIME STEP     5 STRESS PERIOD    8
  ------------------------------------------------------------------------------



     CUMULATIVE VOLUMES      L**3       RATES FOR THIS TIME STEP      L**3/T
     ------------------                 ------------------------

           IN:                                      IN:
           ---                                      ---
        INFILTRATION =   133827240.6253          INFILTRATION =          72.6628

          OUT:                                     OUT:
          ----                                     ----
              UZF ET =   127428429.4277                UZF ET =          58.2420
        UZF RECHARGE =       73224.0000          UZF RECHARGE =       0.0000E+00

            IN - OUT =     6325587.1976              IN - OUT =          14.4207

          STORAGE:                                 STORAGE:
          --------                                 --------
      STORAGE CHANGE =     6325587.4787        STORAGE CHANGE =          14.4207

 PERCENT DISCREPANCY IS DIFFERENCE BETWEEN IN-OUT MINUS CHANGE IN STORAGE
 DIVIDED BY THE AVERAGE OF IN AND OUT TIMES 100

 PERCENT DISCREPANCY =           0.00     PERCENT DISCREPANCY =           0.00






 

            AG WELLS      PERIOD    8   STEP   5
 AG WELL      1   LAYER   1   ROW     6   COL     4   RATE    -11.9692    
 AG WELL      2   LAYER   1   ROW     6   COL     5   RATE    -11.9692    
 AG WELL      3   LAYER   1   ROW     7   COL     4   RATE    -11.9692    
 AG WELL      4   LAYER   1   ROW     7   COL     5   RATE    -11.9692    
 AG WELL      5   LAYER   1   ROW     8   COL     4   RATE    -11.9692    
 AG WELL      6   LAYER   1   ROW     8   COL     5   RATE    -11.9692    
 
 

        GW IRRIGATION     PERIOD    8   STEP   5
 AG WELL      1   ROW     6   COL     4   RATE     11.9692    
 AG WELL      2   ROW     6   COL     5   RATE     11.9692    
 AG WELL      3   ROW     7   COL     4   RATE     11.9692    
 AG WELL      4   ROW     7   COL     5   RATE     11.9692    
 AG WELL      5   ROW     8   COL     4   RATE     11.9692    
 AG WELL      6   ROW     8   COL     5   RATE     11.9692    
 
1
  VOLUMETRIC BUDGET FOR AGRICULTURAL FIELDS AT  END OF TIME STEP    5, STRESS PERIOD   8
  ------------------------------------------------------------------------------

     CUMULATIVE VOLUMES      L**3       RATES FOR THIS TIME STEP      L**3/T
     ------------------                 ------------------------

           IN:                                      IN:
           ---                                      ---
               AG WELLS  =   120009048.0000                 AG WELLS  =          71.8153
      DIVERSION SEGMENTS =           0.0000        DIVERSION SEGMENTS =           0.0000
       IRRIGATION PONDS  =           0.0000         IRRIGATION PONDS  =           0.0000
           GW IRRIGATION =           0.0000             GW IRRIGATION =           0.0000
           SW IRRIGATION =           0.0000             SW IRRIGATION =           0.0000
        SYSTEM LOSSES GW =           0.0000          SYSTEM LOSSES GW =           0.0000
        SYSTEM LOSSES SW =           0.0000          SYSTEM LOSSES SW =           0.0000

                TOTAL IN =   120009048.0000                  TOTAL IN =          71.8153

          OUT:                                     OUT:
          ----                                     ----
               AG WELLS  =           0.0000                 AG WELLS  =           0.0000
      DIVERSION SEGMENTS =           0.0000        DIVERSION SEGMENTS =           0.0000
       IRRIGATION PONDS  =           0.0000         IRRIGATION PONDS  =           0.0000
           GW IRRIGATION =   120009048.0000             GW IRRIGATION =          71.8153
           SW IRRIGATION =           0.0000             SW IRRIGATION =           0.0000
        SYSTEM LOSSES GW =           0.0000          SYSTEM LOSSES GW =           0.0000
        SYSTEM LOSSES SW =           0.0000          SYSTEM LOSSES SW =           0.0000

               TOTAL OUT =   120009048.0000                 TOTAL OUT =          71.8153

                IN - OUT =           0.0000                  IN - OUT =           0.0000

     PERCENT DISCREPANCY =           0.00         PERCENT DISCREPANCY =           0.00



1
  VOLUMETRIC BUDGET FOR ENTIRE MODEL AT END OF TIME STEP    5, STRESS PERIOD   8
  ------------------------------------------------------------------------------

     CUMULATIVE VOLUMES      L**3       RATES FOR THIS TIME STEP      L**3/T
     ------------------                 ------------------------

           IN:                                      IN:
           ---                                      ---
             STORAGE     =   126035056.0000               STORAGE     =          71.5573
       CONSTANT HEAD     =           0.0000         CONSTANT HEAD     =           0.0000
     HEAD DEP BOUNDS     =     4654242.0000       HEAD DEP BOUNDS     =           0.2855
      STREAM LEAKAGE     =   208018544.0000        STREAM LEAKAGE     =          13.2635
        UZF RECHARGE     =       73223.9531          UZF RECHARGE     =           0.0000
               GW ET     =           0.0000                 GW ET     =           0.0000
     SURFACE LEAKAGE     =           0.0000       SURFACE LEAKAGE     =           0.0000
           AG WELLS      =           0.0000             AG WELLS      =           0.0000

                TOTAL IN =   338781056.0000                  TOTAL IN =          85.1063

          OUT:                                     OUT:
          ----                                     ----
             STORAGE     =    42409980.0000               STORAGE     =           1.4507
       CONSTANT HEAD     =           0.0000         CONSTANT HEAD     =           0.0000
     HEAD DEP BOUNDS     =     4805405.0000       HEAD DEP BOUNDS     =           0.2994
      STREAM LEAKAGE     =   164656240.0000        STREAM LEAKAGE     =           9.7048
        UZF RECHARGE     =           0.0000          UZF RECHARGE     =           0.0000
               GW ET     =     6904370.5000                 GW ET     =           1.8361
     SURFACE LEAKAGE     =           0.0000       SURFACE LEAKAGE     =           0.0000
           AG WELLS      =   120009048.0000             AG WELLS      =          71.8153

               TOTAL OUT =   338785024.0000                 TOTAL OUT =          85.1062

                IN - OUT =       -3968.0000                  IN - OUT =       1.1444E-04

     PERCENT DISCREPANCY =          -0.00         PERCENT DISCREPANCY =           0.00






         TIME SUMMARY AT END OF TIME STEP    5 IN STRESS PERIOD    8
                    SECONDS     MINUTES      HOURS       DAYS        YEARS
                    -----------------------------------------------------------
   TIME STEP LENGTH  87667.      1461.1      24.352      1.0147     2.77799E-03
 STRESS PERIOD TIME 4.38333E+05  7305.6      121.76      5.0733     1.38899E-02
         TOTAL TIME 1.63048E+07 2.71746E+05  4529.1      188.71     0.51667    
1
 
 SOLVING FOR HEAD 
                                                   Max.-Head-Change                         Max.-Flux-Residual
  Residual-Control   Outer-Iter.   Inner-Iter.     Column Row Layer    Maximum-Head-Change  Column Row Layer    Maximum-Flux-Residual          L2-NORM 
          0                 1           2             5    8     1       0.4968992899E-01       5    8    1         0.2725218683E+01      0.6378076700E+01
          0                 2           2             4    7     1      -0.1804049300E+00       5    8    1        -0.9838273255E+01      0.2394049555E+02
          0                 3           2             4    7     1      -0.2368145721E-02       4    7    1        -0.1273128696E+00      0.2972335649E+00
          0                 4           2             4    7     1      -0.1185759118E-01       5    8    1        -0.6372085077E+00      0.1560035337E+01
          0                 5           2             4    7     1      -0.8931515823E-02       4    7    1        -0.4793836112E+00      0.1174176246E+01
          0                 6           2             4    7     1       0.6084632735E-03       4    8    1         0.3357199477E-01      0.8222322473E-01
          0                 7           1             4    7     1      -0.2422854949E-04       4    8    1        -0.1374184187E-02      0.3365350786E-02

    ------------------------------------------------
       NWT REQUIRED            7 OUTER ITERATIONS 
       AND A TOTAL OF         13 INNER ITERATIONS.
    ------------------------------------------------

 NO OUTPUT CONTROL FOR STRESS PERIOD    8   TIME STEP    6
 
 SOLVING FOR HEAD 
                                                   Max.-Head-Change                         Max.-Flux-Residual
  Residual-Control   Outer-Iter.   Inner-Iter.     Column Row Layer    Maximum-Head-Change  Column Row Layer    Maximum-Flux-Residual          L2-NORM 
          0                 1           2             5    8     1       0.5337620402E-01       5    8    1         0.2927304673E+01      0.6827087226E+01
          0                 2           2             4    7     1      -0.1805574823E+00       5    8    1        -0.9858481385E+01      0.2397774815E+02
          0                 3           2             4    7     1      -0.2357510287E-02       4    7    1        -0.1267580015E+00      0.2948639091E+00
          0                 4           2             4    7     1      -0.1185837198E-01       5    8    1        -0.6373088619E+00      0.1560208292E+01
          0                 5           2             4    7     1      -0.8931490542E-02       4    7    1        -0.4793808981E+00      0.1174158011E+01
          0                 6           2             4    7     1       0.6084615507E-03       4    6    1         0.3357205843E-01      0.8222701307E-01
          0                 7           1             4    7     1      -0.2422848052E-04       4    6    1        -0.1374221079E-02      0.3365716062E-02

    ------------------------------------------------
       NWT REQUIRED            7 OUTER ITERATIONS 
       AND A TOTAL OF         13 INNER ITERATIONS.
    ------------------------------------------------

 NO OUTPUT CONTROL FOR STRESS PERIOD    8   TIME STEP    7
 
 SOLVING FOR HEAD 
                                                   Max.-Head-Change                         Max.-Flux-Residual
  Residual-Control   Outer-Iter.   Inner-Iter.     Column Row Layer    Maximum-Head-Change  Column Row Layer    Maximum-Flux-Residual          L2-NORM 
          0                 1           2             5    8     1       0.5687368910E-01       5    8    1         0.3118861984E+01      0.7259257693E+01
          0                 2           2             4    7     1      -0.1807132019E+00       5    8    1        -0.9877636644E+01      0.2401382948E+02
          0                 3           2             4    7     1      -0.2346654743E-02       4    7    1        -0.1261896981E+00      0.2925763296E+00
          0                 4           2             4    7     1      -0.1185916933E-01       5    8    1        -0.6374039641E+00      0.1560383857E+01
          0                 5           2             4    7     1      -0.8931465033E-02       4    7    1        -0.4793781190E+00      0.1174145689E+01
          0                 6           2             4    7     1       0.6084598129E-03       5    7    1         0.3357172849E-01      0.8222615287E-01
          0                 7           1             4    7     1      -0.2422841133E-04       4    6    1        -0.1374206954E-02      0.3365682726E-02

    ------------------------------------------------
       NWT REQUIRED            7 OUTER ITERATIONS 
       AND A TOTAL OF         13 INNER ITERATIONS.
    ------------------------------------------------

 NO OUTPUT CONTROL FOR STRESS PERIOD    8   TIME STEP    8
 
 SOLVING FOR HEAD 
                                                   Max.-Head-Change                         Max.-Flux-Residual
  Residual-Control   Outer-Iter.   Inner-Iter.     Column Row Layer    Maximum-Head-Change  Column Row Layer    Maximum-Flux-Residual          L2-NORM 
          0                 1           2             5    8     1       0.6019522017E-01       5    8    1         0.3300614385E+01      0.7674574349E+01
          0                 2           2             4    7     1      -0.1808716761E+00       5    8    1        -0.9895811412E+01      0.2404878416E+02
          0                 3           2             4    7     1      -0.2335607858E-02       4    7    1        -0.1256096073E+00      0.2903599212E+00
          0                 4           2             4    7     1      -0.1185998114E-01       5    8    1        -0.6374836239E+00      0.1560540145E+01
          0                 5           2             4    7     1      -0.8931439370E-02       4    7    1        -0.4793752820E+00      0.1174125830E+01
          0                 6           2             4    7     1       0.6084580644E-03       5    6    1         0.3357187443E-01      0.8223198341E-01
          0                 7           1             4    7     1      -0.2422834179E-04       5    6    1        -0.1374310430E-02      0.3366177760E-02

    ------------------------------------------------
       NWT REQUIRED            7 OUTER ITERATIONS 
       AND A TOTAL OF         13 INNER ITERATIONS.
    ------------------------------------------------

 NO OUTPUT CONTROL FOR STRESS PERIOD    8   TIME STEP    9
 
 SOLVING FOR HEAD 
                                                   Max.-Head-Change                         Max.-Flux-Residual
  Residual-Control   Outer-Iter.   Inner-Iter.     Column Row Layer    Maximum-Head-Change  Column Row Layer    Maximum-Flux-Residual          L2-NORM 
          0                 1           2             5    8     1       0.6335232919E-01       5    8    1         0.3473211432E+01      0.8073663541E+01
          0                 2           2             4    7     1      -0.1810325118E+00       5    8    1        -0.9913070646E+01      0.2408266980E+02
          0                 3           2             4    7     1      -0.2324396975E-02       4    7    1        -0.1250192705E+00      0.2882157574E+00
          0                 4           2             4    7     1      -0.1186080536E-01       5    8    1        -0.6375685747E+00      0.1560703876E+01
          0                 5           2             4    7     1      -0.8931413591E-02       4    7    1        -0.4793723945E+00      0.1174114383E+01
          0                 6           2             4    7     1       0.6084563082E-03       5    6    1         0.3357147316E-01      0.8223118324E-01
          0                 7           1             4    7     1      -0.2422827191E-04       5    6    1        -0.1374294053E-02      0.3366140113E-02

    ------------------------------------------------
       NWT REQUIRED            7 OUTER ITERATIONS 
       AND A TOTAL OF         13 INNER ITERATIONS.
    ------------------------------------------------

 OUTPUT CONTROL FOR STRESS PERIOD    8   TIME STEP   10
    PRINT BUDGET
    SAVE BUDGET
 UBDSV1 SAVING "         STORAGE" ON UNIT 102 AT TIME STEP 10, STRESS PERIOD 8
 UBDSV2 SAVING "   CONSTANT HEAD" ON UNIT 102 AT TIME STEP 10, STRESS PERIOD 8
 UBDSV1 SAVING "FLOW RIGHT FACE " ON UNIT 102 AT TIME STEP 10, STRESS PERIOD 8
 UBDSV1 SAVING "FLOW FRONT FACE " ON UNIT 102 AT TIME STEP 10, STRESS PERIOD 8

  HEAD DEP BOUNDS   PERIOD    8   STEP    10
 BOUNDARY      1   LAYER   1   ROW    13   COL     1   RATE   -0.299185    
 BOUNDARY      2   LAYER   1   ROW    14   COL     9   RATE    0.285481    



 STREAM LISTING     PERIOD      8   STEP       10

 LAYER ROW COL. STREAM  RCH.  FLOW INTO     FLOW TO   FLOW OUT OF   OVRLND.     DIRECT     STREAM       STREAM     STREAM     STREAM   STREAMBED  STREAMBED
                SEG.NO.  NO.  STRM. RCH.    AQUIFER    STRM. RCH.    RUNOFF     PRECIP       ET          HEAD       DEPTH      WIDTH   CONDCTNC.   GRADIENT

   1    1    1     1     1    7.5000E+01  4.2232E-01   7.4578E+01  0.000E+00  0.000E+00  0.000E+00  1.09475E+03  1.698E+00  1.998E+01  8.990E-02  1.566E+00
   1    2    2     1     2    7.4578E+01  6.5422E-01   7.3924E+01  0.000E+00  0.000E+00  0.000E+00  1.08975E+03  1.692E+00  1.992E+01  1.394E-01  1.564E+00
   1    3    3     1     3    7.3924E+01  5.5813E-01   7.3366E+01  0.000E+00  0.000E+00  0.000E+00  1.08410E+03  1.685E+00  1.985E+01  1.191E-01  1.562E+00
   1    3    4     1     4    7.3366E+01  5.1412E-01   7.2852E+01  0.000E+00  0.000E+00  0.000E+00  1.07909E+03  1.679E+00  1.980E+01  1.099E-01  1.560E+00
   1    4    5     2     1    7.0852E+01  4.0967E-01   7.0442E+01  0.000E+00  0.000E+00  0.000E+00  1.07419E+03  2.252E+00  1.200E+01  7.800E-02  1.751E+00
   1    5    6     2     2    7.0442E+01  3.1471E-01   7.0127E+01  0.000E+00  0.000E+00  0.000E+00  1.06875E+03  2.245E+00  1.200E+01  6.000E-02  1.748E+00
   1    6    6     2     3    7.0127E+01  3.1435E-01   6.9813E+01  0.000E+00  0.000E+00  0.000E+00  1.06403E+03  2.239E+00  1.200E+01  6.000E-02  1.746E+00
   1    7    6     2     4    6.9813E+01  3.1399E-01   6.9499E+01  0.000E+00  0.000E+00  0.000E+00  1.05931E+03  2.233E+00  1.200E+01  6.000E-02  1.744E+00
   1    8    6     2     5    6.9499E+01  3.1363E-01   6.9185E+01  0.000E+00  0.000E+00  0.000E+00  1.05459E+03  2.227E+00  1.200E+01  6.000E-02  1.742E+00
   1    3    5     3     1    2.0000E+00  2.8252E-01   1.7175E+00  0.000E+00  0.000E+00  0.000E+00  1.07555E+03  1.909E+00  9.636E+00  7.227E-02  1.955E+00
   1    3    6     3     2    1.7175E+00  2.4905E-01   1.4684E+00  0.000E+00  0.000E+00  0.000E+00  1.07264E+03  1.727E+00  8.909E+00  6.682E-02  1.864E+00
   1    3    7     3     3    1.4684E+00  1.9718E-01   1.2712E+00  0.000E+00  0.000E+00  0.000E+00  1.06987E+03  1.555E+00  8.218E+00  5.547E-02  1.777E+00
   1    4    8     3     4    1.2712E+00  2.2567E-01   1.0456E+00  0.000E+00  0.000E+00  0.000E+00  1.06682E+03  1.364E+00  7.455E+00  6.709E-02  1.682E+00
   1    5    8     3     5    1.0456E+00  1.5790E-01   8.8768E-01  0.000E+00  0.000E+00  0.000E+00  1.06362E+03  1.164E+00  6.655E+00  4.991E-02  1.582E+00
   1    6    8     3     6    8.8768E-01  5.5980E-02   8.3170E-01  0.000E+00  0.000E+00  0.000E+00  1.06158E+03  1.036E+00  6.145E+00  1.844E-02  1.518E+00
   1    5   10     4     1    1.0000E+01  9.0919E-02   9.9091E+00  0.000E+00  0.000E+00  0.000E+00  1.07836E+03  6.368E-01  1.000E+01  2.500E-02  1.212E+00
   1    5    9     4     2    9.9091E+00  1.8158E-01   9.7275E+00  0.000E+00  0.000E+00  0.000E+00  1.07154E+03  6.315E-01  1.000E+01  5.000E-02  1.211E+00
   1    6    8     4     3    9.7275E+00  1.2689E-01   9.6006E+00  0.000E+00  0.000E+00  0.000E+00  1.06381E+03  6.256E-01  1.000E+01  3.500E-02  1.209E+00
   1    6    8     5     1    1.0432E+01  2.2686E-01   1.0205E+01  0.000E+00  0.000E+00  0.000E+00  1.05868E+03  6.790E-01  1.542E+01  6.166E-02  1.226E+00
   1    7    7     5     2    1.0205E+01  2.7894E-01   9.9265E+00  0.000E+00  0.000E+00  0.000E+00  1.05417E+03  6.732E-01  1.519E+01  7.594E-02  1.224E+00
   1    8    7     5     3    9.9265E+00  1.9221E-01   9.7343E+00  0.000E+00  0.000E+00  0.000E+00  1.04992E+03  6.676E-01  1.497E+01  5.241E-02  1.223E+00
   1    8    6     5     4    9.7343E+00  1.3577E-01   9.5985E+00  0.000E+00  0.000E+00  0.000E+00  1.04691E+03  6.637E-01  1.482E+01  3.706E-02  1.221E+00
   1    9    6     6     1    7.8784E+01  3.2569E-01   7.8458E+01  0.000E+00  0.000E+00  0.000E+00  1.04516E+03  2.428E+00  1.200E+01  6.000E-02  1.809E+00
   1   10    7     6     2    7.8458E+01  3.2533E-01   7.8133E+01  0.000E+00  0.000E+00  0.000E+00  1.04060E+03  2.422E+00  1.200E+01  6.000E-02  1.807E+00
   1   11    7     6     3    7.8133E+01  3.2497E-01   7.7808E+01  0.000E+00  0.000E+00  0.000E+00  1.03605E+03  2.416E+00  1.200E+01  6.000E-02  1.805E+00
   1   12    7     6     4    7.7808E+01  3.2461E-01   7.7483E+01  0.000E+00  0.000E+00  0.000E+00  1.03150E+03  2.410E+00  1.200E+01  6.000E-02  1.803E+00
   1   13    7     6     5    7.7483E+01  2.5897E-02   7.7457E+01  0.000E+00  0.000E+00  0.000E+00  1.02832E+03  2.407E+00  1.200E+01  2.400E-02  3.597E-01
   1   14    9     7     1    1.5000E+02  1.3317E+00   1.4867E+02  0.000E+00  0.000E+00  0.000E+00  1.03987E+03  2.288E+00  5.529E+01  5.593E-01  7.937E-01
   1   13    8     7     2    1.4867E+02  1.8009E+00   1.4687E+02  0.000E+00  0.000E+00  0.000E+00  1.03478E+03  2.279E+00  5.526E+01  6.148E-01  9.765E-01
   1   13    7     7     3    1.4687E+02  1.3702E+00   1.4550E+02  0.000E+00  0.000E+00  0.000E+00  1.02969E+03  2.271E+00  5.522E+01  5.585E-01  8.178E-01
   1   13    6     8     1    2.2295E+02  1.0170E+00   2.2194E+02  0.000E+00  0.000E+00  0.000E+00  1.02514E+03  3.265E+00  4.735E+01  4.825E-01  7.026E-01
   1   13    5     8     2    2.2194E+02  1.9942E-01   2.2174E+02  0.000E+00  0.000E+00  0.000E+00  1.01889E+03  3.262E+00  4.730E+01  4.820E-01  1.379E-01
   1   13    4     8     3    2.2174E+02 -1.9212E+00   2.2366E+02  0.000E+00  0.000E+00  0.000E+00  1.01264E+03  3.267E+00  4.737E+01  4.827E+00 -1.327E-01
   1   13    3     8     4    2.2366E+02 -3.0746E+00   2.2673E+02  0.000E+00  0.000E+00  0.000E+00  1.00641E+03  3.280E+00  4.757E+01  4.847E+00 -2.114E-01
   1   13    2     8     5    2.2673E+02 -2.5694E+00   2.2930E+02  0.000E+00  0.000E+00  0.000E+00  1.00017E+03  3.296E+00  4.779E+01  4.870E+00 -1.759E-01
   1   13    1     8     6    2.2930E+02 -2.0238E+00   2.3133E+02  0.000E+00  0.000E+00  0.000E+00  9.95183E+02  3.308E+00  4.797E+01  2.933E+00 -2.300E-01



 UBDSV3 SAVING "           GW ET" ON UNIT  61 AT TIME STEP 10, STRESS PERIOD 8
 UBDSV3 SAVING "    UZF RECHARGE" ON UNIT  61 AT TIME STEP 10, STRESS PERIOD 8
 UBDSV3 SAVING " SURFACE LEAKAGE" ON UNIT  61 AT TIME STEP 10, STRESS PERIOD 8
 UBDSV3 SAVING "       HORT+DUNN" ON UNIT  61 AT TIME STEP 10, STRESS PERIOD 8
 UBDSV3 SAVING "  STORAGE CHANGE" ON UNIT  61 AT TIME STEP 10, STRESS PERIOD 8


UNSATURATED ZONE PACKAGE VOLUMETRIC BUDGET FOR  TIME STEP    10 STRESS PERIOD    8
  ------------------------------------------------------------------------------



     CUMULATIVE VOLUMES      L**3       RATES FOR THIS TIME STEP      L**3/T
     ------------------                 ------------------------

           IN:                                      IN:
           ---                                      ---
        INFILTRATION =   165677748.1047          INFILTRATION =          72.6628

          OUT:                                     OUT:
          ----                                     ----
              UZF ET =   152957850.6571                UZF ET =          58.2420
        UZF RECHARGE =       73224.0000          UZF RECHARGE =       0.0000E+00

            IN - OUT =    12646673.4476              IN - OUT =          14.4207

          STORAGE:                                 STORAGE:
          --------                                 --------
      STORAGE CHANGE =    12646673.8167        STORAGE CHANGE =          14.4207

 PERCENT DISCREPANCY IS DIFFERENCE BETWEEN IN-OUT MINUS CHANGE IN STORAGE
 DIVIDED BY THE AVERAGE OF IN AND OUT TIMES 100

 PERCENT DISCREPANCY =           0.00     PERCENT DISCREPANCY =           0.00






 

            AG WELLS      PERIOD    8   STEP  10
 AG WELL      1   LAYER   1   ROW     6   COL     4   RATE    -11.9692    
 AG WELL      2   LAYER   1   ROW     6   COL     5   RATE    -11.9692    
 AG WELL      3   LAYER   1   ROW     7   COL     4   RATE    -11.9692    
 AG WELL      4   LAYER   1   ROW     7   COL     5   RATE    -11.9692    
 AG WELL      5   LAYER   1   ROW     8   COL     4   RATE    -11.9692    
 AG WELL      6   LAYER   1   ROW     8   COL     5   RATE    -11.9692    
 
 

        GW IRRIGATION     PERIOD    8   STEP  10
 AG WELL      1   ROW     6   COL     4   RATE     11.9692    
 AG WELL      2   ROW     6   COL     5   RATE     11.9692    
 AG WELL      3   ROW     7   COL     4   RATE     11.9692    
 AG WELL      4   ROW     7   COL     5   RATE     11.9692    
 AG WELL      5   ROW     8   COL     4   RATE     11.9692    
 AG WELL      6   ROW     8   COL     5   RATE     11.9692    
 
1
  VOLUMETRIC BUDGET FOR AGRICULTURAL FIELDS AT  END OF TIME STEP   10, STRESS PERIOD   8
  ------------------------------------------------------------------------------

     CUMULATIVE VOLUMES      L**3       RATES FOR THIS TIME STEP      L**3/T
     ------------------                 ------------------------

           IN:                                      IN:
           ---                                      ---
               AG WELLS  =   151488080.0000                 AG WELLS  =          71.8153
      DIVERSION SEGMENTS =           0.0000        DIVERSION SEGMENTS =           0.0000
       IRRIGATION PONDS  =           0.0000         IRRIGATION PONDS  =           0.0000
           GW IRRIGATION =           0.0000             GW IRRIGATION =           0.0000
           SW IRRIGATION =           0.0000             SW IRRIGATION =           0.0000
        SYSTEM LOSSES GW =           0.0000          SYSTEM LOSSES GW =           0.0000
        SYSTEM LOSSES SW =           0.0000          SYSTEM LOSSES SW =           0.0000

                TOTAL IN =   151488080.0000                  TOTAL IN =          71.8153

          OUT:                                     OUT:
          ----                                     ----
               AG WELLS  =           0.0000                 AG WELLS  =           0.0000
      DIVERSION SEGMENTS =           0.0000        DIVERSION SEGMENTS =           0.0000
       IRRIGATION PONDS  =           0.0000         IRRIGATION PONDS  =           0.0000
           GW IRRIGATION =   151488080.0000             GW IRRIGATION =          71.8153
           SW IRRIGATION =           0.0000             SW IRRIGATION =           0.0000
        SYSTEM LOSSES GW =           0.0000          SYSTEM LOSSES GW =           0.0000
        SYSTEM LOSSES SW =           0.0000          SYSTEM LOSSES SW =           0.0000

               TOTAL OUT =   151488080.0000                 TOTAL OUT =          71.8153

                IN - OUT =           0.0000                  IN - OUT =           0.0000

     PERCENT DISCREPANCY =           0.00         PERCENT DISCREPANCY =           0.00



1
  VOLUMETRIC BUDGET FOR ENTIRE MODEL AT END OF TIME STEP   10, STRESS PERIOD   8
  ------------------------------------------------------------------------------

     CUMULATIVE VOLUMES      L**3       RATES FOR THIS TIME STEP      L**3/T
     ------------------                 ------------------------

           IN:                                      IN:
           ---                                      ---
             STORAGE     =   157269120.0000               STORAGE     =          71.1276
       CONSTANT HEAD     =           0.0000         CONSTANT HEAD     =           0.0000
     HEAD DEP BOUNDS     =     4779378.0000       HEAD DEP BOUNDS     =           0.2855
      STREAM LEAKAGE     =   213832096.0000        STREAM LEAKAGE     =          13.2624
        UZF RECHARGE     =       73223.9531          UZF RECHARGE     =           0.0000
               GW ET     =           0.0000                 GW ET     =           0.0000
     SURFACE LEAKAGE     =           0.0000       SURFACE LEAKAGE     =           0.0000
           AG WELLS      =           0.0000             AG WELLS      =           0.0000

                TOTAL IN =   375953792.0000                  TOTAL IN =          84.6755

          OUT:                                     OUT:
          ----                                     ----
             STORAGE     =    43027784.0000               STORAGE     =           1.3812
       CONSTANT HEAD     =           0.0000         CONSTANT HEAD     =           0.0000
     HEAD DEP BOUNDS     =     4936588.0000       HEAD DEP BOUNDS     =           0.2992
      STREAM LEAKAGE     =   168875504.0000        STREAM LEAKAGE     =           9.5890
        UZF RECHARGE     =           0.0000          UZF RECHARGE     =           0.0000
               GW ET     =     7629782.5000                 GW ET     =           1.5908
     SURFACE LEAKAGE     =           0.0000       SURFACE LEAKAGE     =           0.0000
           AG WELLS      =   151488080.0000             AG WELLS      =          71.8153

               TOTAL OUT =   375957728.0000                 TOTAL OUT =          84.6754

                IN - OUT =       -3936.0000                  IN - OUT =       9.9182E-05

     PERCENT DISCREPANCY =          -0.00         PERCENT DISCREPANCY =           0.00






         TIME SUMMARY AT END OF TIME STEP   10 IN STRESS PERIOD    8
                    SECONDS     MINUTES      HOURS       DAYS        YEARS
                    -----------------------------------------------------------
   TIME STEP LENGTH  87667.      1461.1      24.352      1.0147     2.77799E-03
 STRESS PERIOD TIME 8.76667E+05  14611.      243.52      10.147     2.77799E-02
         TOTAL TIME 1.67431E+07 2.79052E+05  4650.9      193.79     0.53056    
1
 
 SOLVING FOR HEAD 
                                                   Max.-Head-Change                         Max.-Flux-Residual
  Residual-Control   Outer-Iter.   Inner-Iter.     Column Row Layer    Maximum-Head-Change  Column Row Layer    Maximum-Flux-Residual          L2-NORM 
          0                 1           2             5    8     1       0.6635595101E-01       5    8    1         0.3637267527E+01      0.8457125608E+01
          0                 2           2             4    7     1      -0.1811953151E+00       5    8    1        -0.9929475788E+01      0.2411552000E+02
          0                 3           2             4    7     1      -0.2313049549E-02       4    7    1        -0.1244202780E+00      0.2861387638E+00
          0                 4           2             4    7     1      -0.1186163997E-01       5    8    1        -0.6376363562E+00      0.1560856885E+01
          0                 5           2             4    7     1      -0.8931387765E-02       4    7    1        -0.4793694645E+00      0.1174099935E+01
          0                 6           2             4    7     1       0.6084545492E-03       5    8    1         0.3357161147E-01      0.8223321971E-01
          0                 7           1             4    7     1      -0.2422820214E-04       5    8    1        -0.1374330294E-02      0.3366329570E-02

    ------------------------------------------------
       NWT REQUIRED            7 OUTER ITERATIONS 
       AND A TOTAL OF         13 INNER ITERATIONS.
    ------------------------------------------------

 NO OUTPUT CONTROL FOR STRESS PERIOD    8   TIME STEP   11
 
 SOLVING FOR HEAD 
                                                   Max.-Head-Change                         Max.-Flux-Residual
  Residual-Control   Outer-Iter.   Inner-Iter.     Column Row Layer    Maximum-Head-Change  Column Row Layer    Maximum-Flux-Residual          L2-NORM 
          0                 1           2             5    8     1       0.6921601052E-01       5    8    1         0.3793341102E+01      0.8825726951E+01
          0                 2           2             4    7     1      -0.1813597772E+00       5    8    1        -0.9945082683E+01      0.2414738173E+02
          0                 3           2             4    7     1      -0.2301587089E-02       4    7    1        -0.1238138584E+00      0.2841262948E+00
          0                 4           2             4    7     1      -0.1186248339E-01       5    8    1        -0.6377124721E+00      0.1561010502E+01
          0                 5           2             4    7     1      -0.8931361938E-02       4    7    1        -0.4793664980E+00      0.1174089208E+01
          0                 6           2             4    7     1       0.6084527894E-03       5    8    1         0.3357124048E-01      0.8223246963E-01
          0                 7           1             4    7     1      -0.2422813168E-04       5    8    1        -0.1374315170E-02      0.3366299381E-02

    ------------------------------------------------
       NWT REQUIRED            7 OUTER ITERATIONS 
       AND A TOTAL OF         13 INNER ITERATIONS.
    ------------------------------------------------

 NO OUTPUT CONTROL FOR STRESS PERIOD    8   TIME STEP   12
 
 SOLVING FOR HEAD 
                                                   Max.-Head-Change                         Max.-Flux-Residual
  Residual-Control   Outer-Iter.   Inner-Iter.     Column Row Layer    Maximum-Head-Change  Column Row Layer    Maximum-Flux-Residual          L2-NORM 
          0                 1           2             5    8     1       0.7194209415E-01       5    8    1         0.3941970523E+01      0.9180234453E+01
          0                 2           2             4    7     1      -0.1815255480E+00       5    8    1        -0.9959945168E+01      0.2417829624E+02
          0                 3           2             4    7     1      -0.2290033971E-02       4    7    1        -0.1232014083E+00      0.2821776269E+00
          0                 4           2             4    7     1      -0.1186333383E-01       5    8    1        -0.6377849652E+00      0.1561159560E+01
          0                 5           2             4    7     1      -0.8931336161E-02       4    7    1        -0.4793635017E+00      0.1174078798E+01
          0                 6           2             4    7     1       0.6084510332E-03       5    8    1         0.3357088706E-01      0.8223174161E-01
          0                 7           1             4    7     1      -0.2422806202E-04       5    8    1        -0.1374300738E-02      0.3366269127E-02

    ------------------------------------------------
       NWT REQUIRED            7 OUTER ITERATIONS 
       AND A TOTAL OF         13 INNER ITERATIONS.
    ------------------------------------------------

 NO OUTPUT CONTROL FOR STRESS PERIOD    8   TIME STEP   13
 
 SOLVING FOR HEAD 
                                                   Max.-Head-Change                         Max.-Flux-Residual
  Residual-Control   Outer-Iter.   Inner-Iter.     Column Row Layer    Maximum-Head-Change  Column Row Layer    Maximum-Flux-Residual          L2-NORM 
          0                 1           2             5    8     1       0.7454249899E-01       5    8    1         0.4083621425E+01      0.9521380513E+01
          0                 2           2             5    7     1      -0.1817065328E+00       5    8    1        -0.9974109808E+01      0.2420830279E+02
          0                 3           2             4    7     1      -0.2278409193E-02       4    7    1        -0.1225840218E+00      0.2802893582E+00
          0                 4           2             4    7     1      -0.1186418988E-01       5    8    1        -0.6378540619E+00      0.1561304254E+01
          0                 5           2             4    7     1      -0.8931310475E-02       4    7    1        -0.4793604811E+00      0.1174068692E+01
          0                 6           2             4    7     1       0.6084492834E-03       5    8    1         0.3357055013E-01      0.8223103477E-01
          0                 7           1             4    7     1      -0.2422799202E-04       5    8    1        -0.1374287002E-02      0.3366240164E-02

    ------------------------------------------------
       NWT REQUIRED            7 OUTER ITERATIONS 
       AND A TOTAL OF         13 INNER ITERATIONS.
    ------------------------------------------------

 NO OUTPUT CONTROL FOR STRESS PERIOD    8   TIME STEP   14
 
 SOLVING FOR HEAD 
                                                   Max.-Head-Change                         Max.-Flux-Residual
  Residual-Control   Outer-Iter.   Inner-Iter.     Column Row Layer    Maximum-Head-Change  Column Row Layer    Maximum-Flux-Residual          L2-NORM 
          0                 1           2             5    8     1       0.7702516576E-01       5    8    1         0.4218739756E+01      0.9849872281E+01
          0                 2           2             5    7     1      -0.1819186018E+00       5    8    1        -0.9987621199E+01      0.2423743777E+02
          0                 3           2             4    7     1      -0.2266732132E-02       4    7    1        -0.1219628146E+00      0.2784584548E+00
          0                 4           2             4    7     1      -0.1186505011E-01       5    8    1        -0.6379199790E+00      0.1561444763E+01
          0                 5           2             4    7     1      -0.8931284918E-02       4    7    1        -0.4793574416E+00      0.1174058878E+01
          0                 6           2             4    7     1       0.6084475424E-03       5    8    1         0.3357022863E-01      0.8223034827E-01
          0                 7           1             4    7     1      -0.2422792283E-04       5    8    1        -0.1374273870E-02      0.3366212099E-02

    ------------------------------------------------
       NWT REQUIRED            7 OUTER ITERATIONS 
       AND A TOTAL OF         13 INNER ITERATIONS.
    ------------------------------------------------

 OUTPUT CONTROL FOR STRESS PERIOD    8   TIME STEP   15
    PRINT BUDGET
    SAVE BUDGET
 UBDSV1 SAVING "         STORAGE" ON UNIT 102 AT TIME STEP 15, STRESS PERIOD 8
 UBDSV2 SAVING "   CONSTANT HEAD" ON UNIT 102 AT TIME STEP 15, STRESS PERIOD 8
 UBDSV1 SAVING "FLOW RIGHT FACE " ON UNIT 102 AT TIME STEP 15, STRESS PERIOD 8
 UBDSV1 SAVING "FLOW FRONT FACE " ON UNIT 102 AT TIME STEP 15, STRESS PERIOD 8

  HEAD DEP BOUNDS   PERIOD    8   STEP    15
 BOUNDARY      1   LAYER   1   ROW    13   COL     1   RATE   -0.298995    
 BOUNDARY      2   LAYER   1   ROW    14   COL     9   RATE    0.285478    



 STREAM LISTING     PERIOD      8   STEP       15

 LAYER ROW COL. STREAM  RCH.  FLOW INTO     FLOW TO   FLOW OUT OF   OVRLND.     DIRECT     STREAM       STREAM     STREAM     STREAM   STREAMBED  STREAMBED
                SEG.NO.  NO.  STRM. RCH.    AQUIFER    STRM. RCH.    RUNOFF     PRECIP       ET          HEAD       DEPTH      WIDTH   CONDCTNC.   GRADIENT

   1    1    1     1     1    7.4999E+01  4.2231E-01   7.4577E+01  0.000E+00  0.000E+00  0.000E+00  1.09475E+03  1.698E+00  1.998E+01  8.990E-02  1.566E+00
   1    2    2     1     2    7.4577E+01  6.5422E-01   7.3923E+01  0.000E+00  0.000E+00  0.000E+00  1.08975E+03  1.692E+00  1.992E+01  1.394E-01  1.564E+00
   1    3    3     1     3    7.3923E+01  5.5813E-01   7.3365E+01  0.000E+00  0.000E+00  0.000E+00  1.08410E+03  1.685E+00  1.985E+01  1.191E-01  1.562E+00
   1    3    4     1     4    7.3365E+01  5.1411E-01   7.2851E+01  0.000E+00  0.000E+00  0.000E+00  1.07909E+03  1.679E+00  1.980E+01  1.099E-01  1.560E+00
   1    4    5     2     1    7.0851E+01  4.0967E-01   7.0441E+01  0.000E+00  0.000E+00  0.000E+00  1.07419E+03  2.252E+00  1.200E+01  7.800E-02  1.751E+00
   1    5    6     2     2    7.0441E+01  3.1471E-01   7.0126E+01  0.000E+00  0.000E+00  0.000E+00  1.06875E+03  2.245E+00  1.200E+01  6.000E-02  1.748E+00
   1    6    6     2     3    7.0126E+01  3.1435E-01   6.9812E+01  0.000E+00  0.000E+00  0.000E+00  1.06403E+03  2.239E+00  1.200E+01  6.000E-02  1.746E+00
   1    7    6     2     4    6.9812E+01  3.1399E-01   6.9498E+01  0.000E+00  0.000E+00  0.000E+00  1.05931E+03  2.233E+00  1.200E+01  6.000E-02  1.744E+00
   1    8    6     2     5    6.9498E+01  3.1363E-01   6.9184E+01  0.000E+00  0.000E+00  0.000E+00  1.05459E+03  2.227E+00  1.200E+01  6.000E-02  1.742E+00
   1    3    5     3     1    2.0000E+00  2.8252E-01   1.7175E+00  0.000E+00  0.000E+00  0.000E+00  1.07555E+03  1.909E+00  9.636E+00  7.227E-02  1.955E+00
   1    3    6     3     2    1.7175E+00  2.4905E-01   1.4684E+00  0.000E+00  0.000E+00  0.000E+00  1.07264E+03  1.727E+00  8.909E+00  6.682E-02  1.864E+00
   1    3    7     3     3    1.4684E+00  1.9718E-01   1.2712E+00  0.000E+00  0.000E+00  0.000E+00  1.06987E+03  1.555E+00  8.218E+00  5.547E-02  1.777E+00
   1    4    8     3     4    1.2712E+00  2.2567E-01   1.0456E+00  0.000E+00  0.000E+00  0.000E+00  1.06682E+03  1.364E+00  7.455E+00  6.709E-02  1.682E+00
   1    5    8     3     5    1.0456E+00  1.5790E-01   8.8768E-01  0.000E+00  0.000E+00  0.000E+00  1.06362E+03  1.164E+00  6.655E+00  4.991E-02  1.582E+00
   1    6    8     3     6    8.8768E-01  5.5980E-02   8.3170E-01  0.000E+00  0.000E+00  0.000E+00  1.06158E+03  1.036E+00  6.145E+00  1.844E-02  1.518E+00
   1    5   10     4     1    1.0000E+01  9.0919E-02   9.9091E+00  0.000E+00  0.000E+00  0.000E+00  1.07836E+03  6.368E-01  1.000E+01  2.500E-02  1.212E+00
   1    5    9     4     2    9.9091E+00  1.8158E-01   9.7275E+00  0.000E+00  0.000E+00  0.000E+00  1.07154E+03  6.315E-01  1.000E+01  5.000E-02  1.211E+00
   1    6    8     4     3    9.7275E+00  1.2689E-01   9.6006E+00  0.000E+00  0.000E+00  0.000E+00  1.06381E+03  6.256E-01  1.000E+01  3.500E-02  1.209E+00
   1    6    8     5     1    1.0432E+01  2.2686E-01   1.0205E+01  0.000E+00  0.000E+00  0.000E+00  1.05868E+03  6.790E-01  1.542E+01  6.166E-02  1.226E+00
   1    7    7     5     2    1.0205E+01  2.7894E-01   9.9265E+00  0.000E+00  0.000E+00  0.000E+00  1.05417E+03  6.732E-01  1.519E+01  7.594E-02  1.224E+00
   1    8    7     5     3    9.9265E+00  1.9221E-01   9.7343E+00  0.000E+00  0.000E+00  0.000E+00  1.04992E+03  6.676E-01  1.497E+01  5.241E-02  1.223E+00
   1    8    6     5     4    9.7343E+00  1.3577E-01   9.5985E+00  0.000E+00  0.000E+00  0.000E+00  1.04691E+03  6.637E-01  1.482E+01  3.706E-02  1.221E+00
   1    9    6     6     1    7.8783E+01  3.2569E-01   7.8457E+01  0.000E+00  0.000E+00  0.000E+00  1.04516E+03  2.428E+00  1.200E+01  6.000E-02  1.809E+00
   1   10    7     6     2    7.8457E+01  3.2533E-01   7.8132E+01  0.000E+00  0.000E+00  0.000E+00  1.04060E+03  2.422E+00  1.200E+01  6.000E-02  1.807E+00
   1   11    7     6     3    7.8132E+01  3.2497E-01   7.7807E+01  0.000E+00  0.000E+00  0.000E+00  1.03605E+03  2.416E+00  1.200E+01  6.000E-02  1.805E+00
   1   12    7     6     4    7.7807E+01  3.2461E-01   7.7482E+01  0.000E+00  0.000E+00  0.000E+00  1.03150E+03  2.410E+00  1.200E+01  6.000E-02  1.803E+00
   1   13    7     6     5    7.7482E+01  2.5848E-02   7.7456E+01  0.000E+00  0.000E+00  0.000E+00  1.02832E+03  2.407E+00  1.200E+01  2.400E-02  3.590E-01
   1   14    9     7     1    1.5000E+02  1.3317E+00   1.4867E+02  0.000E+00  0.000E+00  0.000E+00  1.03987E+03  2.288E+00  5.529E+01  5.593E-01  7.937E-01
   1   13    8     7     2    1.4867E+02  1.8003E+00   1.4687E+02  0.000E+00  0.000E+00  0.000E+00  1.03478E+03  2.279E+00  5.526E+01  6.148E-01  9.761E-01
   1   13    7     7     3    1.4687E+02  1.3690E+00   1.4550E+02  0.000E+00  0.000E+00  0.000E+00  1.02969E+03  2.271E+00  5.522E+01  5.585E-01  8.171E-01
   1   13    6     8     1    2.2296E+02  1.0167E+00   2.2194E+02  0.000E+00  0.000E+00  0.000E+00  1.02514E+03  3.265E+00  4.735E+01  4.825E-01  7.024E-01
   1   13    5     8     2    2.2194E+02  2.0027E-01   2.2174E+02  0.000E+00  0.000E+00  0.000E+00  1.01889E+03  3.262E+00  4.730E+01  4.820E-01  1.385E-01
   1   13    4     8     3    2.2174E+02 -1.9164E+00   2.2365E+02  0.000E+00  0.000E+00  0.000E+00  1.01264E+03  3.267E+00  4.737E+01  4.827E+00 -1.323E-01
   1   13    3     8     4    2.2365E+02 -3.0694E+00   2.2672E+02  0.000E+00  0.000E+00  0.000E+00  1.00641E+03  3.280E+00  4.757E+01  4.847E+00 -2.111E-01
   1   13    2     8     5    2.2672E+02 -2.5431E+00   2.2927E+02  0.000E+00  0.000E+00  0.000E+00  1.00017E+03  3.296E+00  4.779E+01  4.870E+00 -1.741E-01
   1   13    1     8     6    2.2927E+02 -2.0097E+00   2.3128E+02  0.000E+00  0.000E+00  0.000E+00  9.95183E+02  3.308E+00  4.797E+01  2.933E+00 -2.284E-01



 UBDSV3 SAVING "           GW ET" ON UNIT  61 AT TIME STEP 15, STRESS PERIOD 8
 UBDSV3 SAVING "    UZF RECHARGE" ON UNIT  61 AT TIME STEP 15, STRESS PERIOD 8
 UBDSV3 SAVING " SURFACE LEAKAGE" ON UNIT  61 AT TIME STEP 15, STRESS PERIOD 8
 UBDSV3 SAVING "       HORT+DUNN" ON UNIT  61 AT TIME STEP 15, STRESS PERIOD 8
 UBDSV3 SAVING "  STORAGE CHANGE" ON UNIT  61 AT TIME STEP 15, STRESS PERIOD 8


UNSATURATED ZONE PACKAGE VOLUMETRIC BUDGET FOR  TIME STEP    15 STRESS PERIOD    8
  ------------------------------------------------------------------------------



     CUMULATIVE VOLUMES      L**3       RATES FOR THIS TIME STEP      L**3/T
     ------------------                 ------------------------

           IN:                                      IN:
           ---                                      ---
        INFILTRATION =   197528255.5841          INFILTRATION =          72.6628

          OUT:                                     OUT:
          ----                                     ----
              UZF ET =   178487271.8865                UZF ET =          58.2420
        UZF RECHARGE =       73224.0000          UZF RECHARGE =       0.0000E+00

            IN - OUT =    18967759.6976              IN - OUT =          14.4207

          STORAGE:                                 STORAGE:
          --------                                 --------
      STORAGE CHANGE =    18967760.1546        STORAGE CHANGE =          14.4207

 PERCENT DISCREPANCY IS DIFFERENCE BETWEEN IN-OUT MINUS CHANGE IN STORAGE
 DIVIDED BY THE AVERAGE OF IN AND OUT TIMES 100

 PERCENT DISCREPANCY =           0.00     PERCENT DISCREPANCY =           0.00






 

            AG WELLS      PERIOD    8   STEP  15
 AG WELL      1   LAYER   1   ROW     6   COL     4   RATE    -11.9692    
 AG WELL      2   LAYER   1   ROW     6   COL     5   RATE    -11.9692    
 AG WELL      3   LAYER   1   ROW     7   COL     4   RATE    -11.9692    
 AG WELL      4   LAYER   1   ROW     7   COL     5   RATE    -11.9692    
 AG WELL      5   LAYER   1   ROW     8   COL     4   RATE    -11.9692    
 AG WELL      6   LAYER   1   ROW     8   COL     5   RATE    -11.9692    
 
 

        GW IRRIGATION     PERIOD    8   STEP  15
 AG WELL      1   ROW     6   COL     4   RATE     11.9692    
 AG WELL      2   ROW     6   COL     5   RATE     11.9692    
 AG WELL      3   ROW     7   COL     4   RATE     11.9692    
 AG WELL      4   ROW     7   COL     5   RATE     11.9692    
 AG WELL      5   ROW     8   COL     4   RATE     11.9692    
 AG WELL      6   ROW     8   COL     5   RATE     11.9692    
 
1
  VOLUMETRIC BUDGET FOR AGRICULTURAL FIELDS AT  END OF TIME STEP   15, STRESS PERIOD   8
  ------------------------------------------------------------------------------

     CUMULATIVE VOLUMES      L**3       RATES FOR THIS TIME STEP      L**3/T
     ------------------                 ------------------------

           IN:                                      IN:
           ---                                      ---
               AG WELLS  =   182967120.0000                 AG WELLS  =          71.8153
      DIVERSION SEGMENTS =           0.0000        DIVERSION SEGMENTS =           0.0000
       IRRIGATION PONDS  =           0.0000         IRRIGATION PONDS  =           0.0000
           GW IRRIGATION =           0.0000             GW IRRIGATION =           0.0000
           SW IRRIGATION =           0.0000             SW IRRIGATION =           0.0000
        SYSTEM LOSSES GW =           0.0000          SYSTEM LOSSES GW =           0.0000
        SYSTEM LOSSES SW =           0.0000          SYSTEM LOSSES SW =           0.0000

                TOTAL IN =   182967120.0000                  TOTAL IN =          71.8153

          OUT:                                     OUT:
          ----                                     ----
               AG WELLS  =           0.0000                 AG WELLS  =           0.0000
      DIVERSION SEGMENTS =           0.0000        DIVERSION SEGMENTS =           0.0000
       IRRIGATION PONDS  =           0.0000         IRRIGATION PONDS  =           0.0000
           GW IRRIGATION =   182967120.0000             GW IRRIGATION =          71.8153
           SW IRRIGATION =           0.0000             SW IRRIGATION =           0.0000
        SYSTEM LOSSES GW =           0.0000          SYSTEM LOSSES GW =           0.0000
        SYSTEM LOSSES SW =           0.0000          SYSTEM LOSSES SW =           0.0000

               TOTAL OUT =   182967120.0000                 TOTAL OUT =          71.8153

                IN - OUT =           0.0000                  IN - OUT =           0.0000

     PERCENT DISCREPANCY =           0.00         PERCENT DISCREPANCY =           0.00



1
  VOLUMETRIC BUDGET FOR ENTIRE MODEL AT END OF TIME STEP   15, STRESS PERIOD   8
  ------------------------------------------------------------------------------

     CUMULATIVE VOLUMES      L**3       RATES FOR THIS TIME STEP      L**3/T
     ------------------                 ------------------------

           IN:                                      IN:
           ---                                      ---
             STORAGE     =   188401248.0000               STORAGE     =          70.9685
       CONSTANT HEAD     =           0.0000         CONSTANT HEAD     =           0.0000
     HEAD DEP BOUNDS     =     4904513.0000       HEAD DEP BOUNDS     =           0.2855
      STREAM LEAKAGE     =   219645072.0000        STREAM LEAKAGE     =          13.2610
        UZF RECHARGE     =       73223.9531          UZF RECHARGE     =           0.0000
               GW ET     =           0.0000                 GW ET     =           0.0000
     SURFACE LEAKAGE     =           0.0000       SURFACE LEAKAGE     =           0.0000
           AG WELLS      =           0.0000             AG WELLS      =           0.0000

                TOTAL IN =   413024064.0000                  TOTAL IN =          84.5150

          OUT:                                     OUT:
          ----                                     ----
             STORAGE     =    43615028.0000               STORAGE     =           1.3130
       CONSTANT HEAD     =           0.0000         CONSTANT HEAD     =           0.0000
     HEAD DEP BOUNDS     =     5067679.5000       HEAD DEP BOUNDS     =           0.2990
      STREAM LEAKAGE     =   173064368.0000        STREAM LEAKAGE     =           9.5386
        UZF RECHARGE     =           0.0000          UZF RECHARGE     =           0.0000
               GW ET     =     8313782.5000                 GW ET     =           1.5490
     SURFACE LEAKAGE     =           0.0000       SURFACE LEAKAGE     =           0.0000
           AG WELLS      =   182967120.0000             AG WELLS      =          71.8153

               TOTAL OUT =   413027968.0000                 TOTAL OUT =          84.5149

                IN - OUT =       -3904.0000                  IN - OUT =       9.9182E-05

     PERCENT DISCREPANCY =          -0.00         PERCENT DISCREPANCY =           0.00






         TIME SUMMARY AT END OF TIME STEP   15 IN STRESS PERIOD    8
                    SECONDS     MINUTES      HOURS       DAYS        YEARS
                    -----------------------------------------------------------
   TIME STEP LENGTH  87667.      1461.1      24.352      1.0147     2.77799E-03
 STRESS PERIOD TIME 1.31500E+06  21917.      365.28      15.220     4.16698E-02
         TOTAL TIME 1.71814E+07 2.86357E+05  4772.6      198.86     0.54445    
1
 
 SOLVING FOR HEAD 
                                                   Max.-Head-Change                         Max.-Flux-Residual
  Residual-Control   Outer-Iter.   Inner-Iter.     Column Row Layer    Maximum-Head-Change  Column Row Layer    Maximum-Flux-Residual          L2-NORM 
          0                 1           2             5    8     1       0.7939771571E-01       5    8    1         0.4347752960E+01      0.1016639227E+02
          0                 2           2             5    7     1      -0.1821260653E+00       5    8    1        -0.1000052208E+02      0.2426573756E+02
          0                 3           2             4    7     1      -0.2255022551E-02       4    7    1        -0.1213389225E+00      0.2766819895E+00
          0                 4           2             4    7     1      -0.1186591307E-01       5    8    1        -0.6379829245E+00      0.1561581266E+01
          0                 5           2             4    7     1      -0.8931259533E-02       4    7    1        -0.4793543888E+00      0.1174049343E+01
          0                 6           2             4    7     1       0.6084458129E-03       5    8    1         0.3356992156E-01      0.8222968119E-01
          0                 7           1             4    7     1      -0.2422785398E-04       5    8    1        -0.1374261330E-02      0.3366184917E-02

    ------------------------------------------------
       NWT REQUIRED            7 OUTER ITERATIONS 
       AND A TOTAL OF         13 INNER ITERATIONS.
    ------------------------------------------------

 NO OUTPUT CONTROL FOR STRESS PERIOD    8   TIME STEP   16
 
 SOLVING FOR HEAD 
                                                   Max.-Head-Change                         Max.-Flux-Residual
  Residual-Control   Outer-Iter.   Inner-Iter.     Column Row Layer    Maximum-Head-Change  Column Row Layer    Maximum-Flux-Residual          L2-NORM 
          0                 1           2             5    8     1       0.8166678402E-01       5    8    1         0.4471032627E+01      0.1047155947E+02
          0                 2           2             5    7     1      -0.1823290123E+00       5    8    1        -0.1001284962E+02      0.2429323580E+02
          0                 3           2             4    7     1      -0.2243294164E-02       4    7    1        -0.1207131428E+00      0.2749572816E+00
          0                 4           2             4    7     1      -0.1186677773E-01       5    8    1        -0.6380430791E+00      0.1561713928E+01
          0                 5           2             4    7     1      -0.8931234346E-02       4    7    1        -0.4793513266E+00      0.1174040076E+01
          0                 6           2             4    7     1       0.6084440972E-03       5    8    1         0.3356962801E-01      0.8222903274E-01
          0                 7           1             4    7     1      -0.2422778559E-04       5    8    1        -0.1374249342E-02      0.3366158557E-02

    ------------------------------------------------
       NWT REQUIRED            7 OUTER ITERATIONS 
       AND A TOTAL OF         13 INNER ITERATIONS.
    ------------------------------------------------

 NO OUTPUT CONTROL FOR STRESS PERIOD    8   TIME STEP   17
 
 SOLVING FOR HEAD 
                                                   Max.-Head-Change                         Max.-Flux-Residual
  Residual-Control   Outer-Iter.   Inner-Iter.     Column Row Layer    Maximum-Head-Change  Column Row Layer    Maximum-Flux-Residual          L2-NORM 
          0                 1           2             5    8     1       0.8383865376E-01       5    8    1         0.4588930663E+01      0.1076595522E+02
          0                 2           2             5    7     1      -0.1825275224E+00       5    8    1        -0.1002463901E+02      0.2431996433E+02
          0                 3           2             4    7     1      -0.2231564068E-02       4    7    1        -0.1200864630E+00      0.2732818632E+00
          0                 4           2             4    7     1      -0.1186764283E-01       5    8    1        -0.6381006140E+00      0.1561842904E+01
          0                 5           2             4    7     1      -0.8931209391E-02       4    7    1        -0.4793482599E+00      0.1174031066E+01
          0                 6           2             4    7     1       0.6084423971E-03       5    8    1         0.3356934720E-01      0.8222840218E-01
          0                 7           1             4    7     1      -0.2422771801E-04       5    8    1        -0.1374237876E-02      0.3366132611E-02

    ------------------------------------------------
       NWT REQUIRED            7 OUTER ITERATIONS 
       AND A TOTAL OF         13 INNER ITERATIONS.
    ------------------------------------------------

 NO OUTPUT CONTROL FOR STRESS PERIOD    8   TIME STEP   18
 
 SOLVING FOR HEAD 
                                                   Max.-Head-Change                         Max.-Flux-Residual
  Residual-Control   Outer-Iter.   Inner-Iter.     Column Row Layer    Maximum-Head-Change  Column Row Layer    Maximum-Flux-Residual          L2-NORM 
          0                 1           2             5    8     1       0.8591941964E-01       5    8    1         0.4701788557E+01      0.1105015174E+02
          0                 2           2             5    7     1      -0.1827216373E+00       5    8    1        -0.1003592439E+02      0.2434595364E+02
          0                 3           2             4    7     1      -0.2219845375E-02       4    7    1        -0.1194596409E+00      0.2716534618E+00
          0                 4           2             4    7     1      -0.1186850741E-01       5    8    1        -0.6381556953E+00      0.1561968341E+01
          0                 5           2             4    7     1      -0.8931184694E-02       4    7    1        -0.4793451923E+00      0.1174022303E+01
          0                 6           2             4    7     1       0.6084407142E-03       4    7    1         0.3356908325E-01      0.8222778877E-01
          0                 7           1             4    7     1      -0.2422765077E-04       5    8    1        -0.1374226887E-02      0.3366107477E-02

    ------------------------------------------------
       NWT REQUIRED            7 OUTER ITERATIONS 
       AND A TOTAL OF         13 INNER ITERATIONS.
    ------------------------------------------------

 NO OUTPUT CONTROL FOR STRESS PERIOD    8   TIME STEP   19
 
 SOLVING FOR HEAD 
                                                   Max.-Head-Change                         Max.-Flux-Residual
  Residual-Control   Outer-Iter.   Inner-Iter.     Column Row Layer    Maximum-Head-Change  Column Row Layer    Maximum-Flux-Residual          L2-NORM 
          0                 1           2             5    8     1       0.8791445500E-01       5    8    1         0.4809906619E+01      0.1132466197E+02
          0                 2           2             5    7     1      -0.1829114634E+00       5    8    1        -0.1004673580E+02      0.2437123334E+02
          0                 3           2             4    7     1      -0.2208151845E-02       4    7    1        -0.1188334782E+00      0.2700698707E+00
          0                 4           2             4    7     1      -0.1186937045E-01       5    8    1        -0.6382084690E+00      0.1562090384E+01
          0                 5           2             4    7     1      -0.8931160283E-02       4    7    1        -0.4793421278E+00      0.1174013776E+01
          0                 6           2             4    7     1       0.6084390516E-03       4    7    1         0.3356886880E-01      0.8222719187E-01
          0                 7           1             4    7     1      -0.2422758503E-04       5    8    1        -0.1374216367E-02      0.3366083156E-02

    ------------------------------------------------
       NWT REQUIRED            7 OUTER ITERATIONS 
       AND A TOTAL OF         13 INNER ITERATIONS.
    ------------------------------------------------

 NO OUTPUT CONTROL FOR STRESS PERIOD    8   TIME STEP   20
 
 SOLVING FOR HEAD 
                                                   Max.-Head-Change                         Max.-Flux-Residual
  Residual-Control   Outer-Iter.   Inner-Iter.     Column Row Layer    Maximum-Head-Change  Column Row Layer    Maximum-Flux-Residual          L2-NORM 
          0                 1           2             5    8     1       0.8982888872E-01       5    8    1         0.4913571315E+01      0.1158997060E+02
          0                 2           2             5    7     1      -0.1830970946E+00       5    8    1        -0.1005710188E+02      0.2439583139E+02
          0                 3           2             4    7     1      -0.2196494302E-02       4    7    1        -0.1182086060E+00      0.2685290454E+00
          0                 4           2             4    7     1      -0.1187023114E-01       5    8    1        -0.6382590745E+00      0.1562209167E+01
          0                 5           2             4    7     1      -0.8931136175E-02       4    7    1        -0.4793390695E+00      0.1174005477E+01
          0                 6           2             4    7     1       0.6084374091E-03       4    7    1         0.3356865476E-01      0.8222661078E-01
          0                 7           1             4    7     1      -0.2422751930E-04       5    8    1        -0.1374206254E-02      0.3366059381E-02

    ------------------------------------------------
       NWT REQUIRED            7 OUTER ITERATIONS 
       AND A TOTAL OF         13 INNER ITERATIONS.
    ------------------------------------------------

 NO OUTPUT CONTROL FOR STRESS PERIOD    8   TIME STEP   21
 
 SOLVING FOR HEAD 
                                                   Max.-Head-Change                         Max.-Flux-Residual
  Residual-Control   Outer-Iter.   Inner-Iter.     Column Row Layer    Maximum-Head-Change  Column Row Layer    Maximum-Flux-Residual          L2-NORM 
          0                 1           2             5    8     1       0.9166733104E-01       5    8    1         0.5013040740E+01      0.1184653189E+02
          0                 2           2             5    7     1      -0.1832785833E+00       5    8    1        -0.1006704844E+02      0.2441977308E+02
          0                 3           2             4    7     1      -0.2184883560E-02       4    7    1        -0.1175856527E+00      0.2670291951E+00
          0                 4           2             4    7     1      -0.1187108868E-01       5    8    1        -0.6383076375E+00      0.1562324812E+01
          0                 5           2             4    7     1      -0.8931112394E-02       4    7    1        -0.4793360205E+00      0.1173997396E+01
          0                 6           2             4    7     1       0.6084357888E-03       4    7    1         0.3356844137E-01      0.8222604625E-01
          0                 7           1             4    7     1      -0.2422745459E-04       5    8    1        -0.1374196574E-02      0.3366068117E-02

    ------------------------------------------------
       NWT REQUIRED            7 OUTER ITERATIONS 
       AND A TOTAL OF         13 INNER ITERATIONS.
    ------------------------------------------------

 NO OUTPUT CONTROL FOR STRESS PERIOD    8   TIME STEP   22
 
 SOLVING FOR HEAD 
                                                   Max.-Head-Change                         Max.-Flux-Residual
  Residual-Control   Outer-Iter.   Inner-Iter.     Column Row Layer    Maximum-Head-Change  Column Row Layer    Maximum-Flux-Residual          L2-NORM 
          0                 1           2             5    8     1       0.9343434768E-01       5    8    1         0.5108569633E+01      0.1209478892E+02
          0                 2           2             5    7     1      -0.1834560443E+00       5    8    1        -0.1007660095E+02      0.2444308459E+02
          0                 3           2             4    7     1      -0.2173330341E-02       4    7    1        -0.1169652461E+00      0.2655684993E+00
          0                 4           2             4    7     1      -0.1187194227E-01       5    8    1        -0.6383542817E+00      0.1562437445E+01
          0                 5           2             4    7     1      -0.8931088957E-02       4    7    1        -0.4793329838E+00      0.1173989525E+01
          0                 6           2             4    7     1       0.6084341921E-03       4    7    1         0.3356822882E-01      0.8222549366E-01
          0                 7           1             4    7     1      -0.2422739104E-04       5    8    1        -0.1374187247E-02      0.3366013445E-02

    ------------------------------------------------
       NWT REQUIRED            7 OUTER ITERATIONS 
       AND A TOTAL OF         13 INNER ITERATIONS.
    ------------------------------------------------

 NO OUTPUT CONTROL FOR STRESS PERIOD    8   TIME STEP   23
 
 SOLVING FOR HEAD 
                                                   Max.-Head-Change                         Max.-Flux-Residual
  Residual-Control   Outer-Iter.   Inner-Iter.     Column Row Layer    Maximum-Head-Change  Column Row Layer    Maximum-Flux-Residual          L2-NORM 
          0                 1           2             5    8     1       0.9513389951E-01       5    8    1         0.5200379046E+01      0.1233514071E+02
          0                 2           2             5    7     1      -0.1836295769E+00       5    8    1        -0.1008578153E+02      0.2446578969E+02
          0                 3           2             4    7     1      -0.2161843531E-02       4    7    1        -0.1163479066E+00      0.2641453095E+00
          0                 4           2             4    7     1      -0.1187279127E-01       5    8    1        -0.6383991148E+00      0.1562547180E+01
          0                 5           2             4    7     1      -0.8931065881E-02       4    7    1        -0.4793299620E+00      0.1173981856E+01
          0                 6           2             4    7     1       0.6084326201E-03       4    7    1         0.3356801733E-01      0.8222495649E-01
          0                 7           1             4    7     1      -0.2422732841E-04       5    8    1        -0.1374178279E-02      0.3365991429E-02

    ------------------------------------------------
       NWT REQUIRED            7 OUTER ITERATIONS 
       AND A TOTAL OF         13 INNER ITERATIONS.
    ------------------------------------------------

 NO OUTPUT CONTROL FOR STRESS PERIOD    8   TIME STEP   24
 
 SOLVING FOR HEAD 
                                                   Max.-Head-Change                         Max.-Flux-Residual
  Residual-Control   Outer-Iter.   Inner-Iter.     Column Row Layer    Maximum-Head-Change  Column Row Layer    Maximum-Flux-Residual          L2-NORM 
          0                 1           2             5    8     1       0.9676980896E-01       5    8    1         0.5288682205E+01      0.1256795009E+02
          0                 2           2             5    7     1      -0.1837992381E+00       5    8    1        -0.1009461149E+02      0.2448791039E+02
          0                 3           2             4    7     1      -0.2150430312E-02       4    7    1        -0.1157340569E+00      0.2627581032E+00
          0                 4           2             4    7     1      -0.1187363513E-01       5    8    1        -0.6384422405E+00      0.1562654123E+01
          0                 5           2             4    7     1      -0.8931043177E-02       4    7    1        -0.4793269572E+00      0.1173974382E+01
          0                 6           2             4    7     1       0.6084310735E-03       4    7    1         0.3356780700E-01      0.8222443287E-01
          0                 7           1             4    7     1      -0.2422726727E-04       5    8    1        -0.1374169644E-02      0.3365969980E-02

    ------------------------------------------------
       NWT REQUIRED            7 OUTER ITERATIONS 
       AND A TOTAL OF         13 INNER ITERATIONS.
    ------------------------------------------------

 NO OUTPUT CONTROL FOR STRESS PERIOD    8   TIME STEP   25
 
 SOLVING FOR HEAD 
                                                   Max.-Head-Change                         Max.-Flux-Residual
  Residual-Control   Outer-Iter.   Inner-Iter.     Column Row Layer    Maximum-Head-Change  Column Row Layer    Maximum-Flux-Residual          L2-NORM 
          0                 1           2             5    8     1       0.9834577785E-01       5    8    1         0.5373685146E+01      0.1279359320E+02
          0                 2           2             5    7     1      -0.1839651586E+00       5    8    1        -0.1010311144E+02      0.2450946948E+02
          0                 3           2             4    7     1      -0.2139099812E-02       4    7    1        -0.1151242333E+00      0.2614053816E+00
          0                 4           2             4    7     1      -0.1187447318E-01       5    8    1        -0.6384837592E+00      0.1562758382E+01
          0                 5           2             4    7     1      -0.8931020862E-02       4    7    1        -0.4793239720E+00      0.1173967096E+01
          0                 6           2             4    7     1       0.6084295533E-03       4    7    1         0.3356759806E-01      0.8222392229E-01
          0                 7           1             4    7     1      -0.2422720671E-04       5    8    1        -0.1374161339E-02      0.3365949038E-02

    ------------------------------------------------
       NWT REQUIRED            7 OUTER ITERATIONS 
       AND A TOTAL OF         13 INNER ITERATIONS.
    ------------------------------------------------

 NO OUTPUT CONTROL FOR STRESS PERIOD    8   TIME STEP   26
 
 SOLVING FOR HEAD 
                                                   Max.-Head-Change                         Max.-Flux-Residual
  Residual-Control   Outer-Iter.   Inner-Iter.     Column Row Layer    Maximum-Head-Change  Column Row Layer    Maximum-Flux-Residual          L2-NORM 
          0                 1           2             5    8     1       0.9986496639E-01       5    8    1         0.5455564142E+01      0.1301239508E+02
          0                 2           2             5    7     1      -0.1841274089E+00       5    8    1        -0.1011129900E+02      0.2453048718E+02
          0                 3           2             4    7     1      -0.2127857616E-02       4    7    1        -0.1145187692E+00      0.2600857937E+00
          0                 4           2             4    7     1      -0.1187530499E-01       5    8    1        -0.6385237564E+00      0.1562860054E+01
          0                 5           2             4    7     1      -0.8930998943E-02       4    7    1        -0.4793210081E+00      0.1173959989E+01
          0                 6           2             4    7     1       0.6084280600E-03       4    7    1         0.3356739058E-01      0.8222342433E-01
          0                 7           1             4    7     1      -0.2422714719E-04       5    8    1        -0.1374153322E-02      0.3365928705E-02

    ------------------------------------------------
       NWT REQUIRED            7 OUTER ITERATIONS 
       AND A TOTAL OF         13 INNER ITERATIONS.
    ------------------------------------------------

 NO OUTPUT CONTROL FOR STRESS PERIOD    8   TIME STEP   27
 
 SOLVING FOR HEAD 
                                                   Max.-Head-Change                         Max.-Flux-Residual
  Residual-Control   Outer-Iter.   Inner-Iter.     Column Row Layer    Maximum-Head-Change  Column Row Layer    Maximum-Flux-Residual          L2-NORM 
          0                 1           2             5    8     1       0.1013305961E+00       5    8    1         0.5534498732E+01      0.1322467256E+02
          0                 2           2             5    7     1      -0.1842860891E+00       5    8    1        -0.1011919213E+02      0.2455098321E+02
          0                 3           2             4    7     1      -0.2116709625E-02       4    7    1        -0.1139180134E+00      0.2587980513E+00
          0                 4           2             4    7     1      -0.1187613013E-01       5    8    1        -0.6385623196E+00      0.1562959233E+01
          0                 5           2             4    7     1      -0.8930977429E-02       4    7    1        -0.4793180671E+00      0.1173953057E+01
          0                 6           2             4    7     1       0.6084265942E-03       4    7    1         0.3356718471E-01      0.8222293840E-01
          0                 7           1             4    7     1      -0.2422708848E-04       5    8    1        -0.1374145607E-02      0.3365908698E-02

    ------------------------------------------------
       NWT REQUIRED            7 OUTER ITERATIONS 
       AND A TOTAL OF         13 INNER ITERATIONS.
    ------------------------------------------------

 NO OUTPUT CONTROL FOR STRESS PERIOD    8   TIME STEP   28
 
 SOLVING FOR HEAD 
                                                   Max.-Head-Change                         Max.-Flux-Residual
  Residual-Control   Outer-Iter.   Inner-Iter.     Column Row Layer    Maximum-Head-Change  Column Row Layer    Maximum-Flux-Residual          L2-NORM 
          0                 1           2             5    8     1       0.1027453942E+00       5    8    1         0.5610640292E+01      0.1343071321E+02
          0                 2           2             5    7     1      -0.1844412837E+00       5    8    1        -0.1012680597E+02      0.2457097646E+02
          0                 3           2             4    7     1      -0.2105662000E-02       4    7    1        -0.1133223316E+00      0.2575409128E+00
          0                 4           2             4    7     1      -0.1187694815E-01       5    8    1        -0.6385995226E+00      0.1563056010E+01
          0                 5           2             4    7     1      -0.8930956330E-02       4    7    1        -0.4793151508E+00      0.1173946292E+01
          0                 6           2             4    7     1       0.6084251569E-03       4    7    1         0.3356698056E-01      0.8222246422E-01
          0                 7           1             4    7     1      -0.2422703137E-04       5    8    1        -0.1374138166E-02      0.3365889297E-02

    ------------------------------------------------
       NWT REQUIRED            7 OUTER ITERATIONS 
       AND A TOTAL OF         13 INNER ITERATIONS.
    ------------------------------------------------

 NO OUTPUT CONTROL FOR STRESS PERIOD    8   TIME STEP   29
 
 SOLVING FOR HEAD 
                                                   Max.-Head-Change                         Max.-Flux-Residual
  Residual-Control   Outer-Iter.   Inner-Iter.     Column Row Layer    Maximum-Head-Change  Column Row Layer    Maximum-Flux-Residual          L2-NORM 
          0                 1           2             5    8     1       0.1041123229E+00       5    8    1         0.5684153734E+01      0.1363080508E+02
          0                 2           2             5    7     1      -0.1845930755E+00       5    8    1        -0.1013415700E+02      0.2459048473E+02
          0                 3           2             4    7     1      -0.2094719368E-02       4    7    1        -0.1127320013E+00      0.2563132600E+00
          0                 4           2             4    7     1      -0.1187775868E-01       5    8    1        -0.6386354454E+00      0.1563150468E+01
          0                 5           2             4    7     1      -0.8930935652E-02       4    7    1        -0.4793122607E+00      0.1173939688E+01
          0                 6           2             4    7     1       0.6084237483E-03       4    7    1         0.3356677823E-01      0.8222200126E-01
          0                 7           1             4    7     1      -0.2422697530E-04       5    8    1        -0.1374130948E-02      0.3365870842E-02

    ------------------------------------------------
       NWT REQUIRED            7 OUTER ITERATIONS 
       AND A TOTAL OF         13 INNER ITERATIONS.
    ------------------------------------------------

 NO OUTPUT CONTROL FOR STRESS PERIOD    8   TIME STEP   30



 STREAM LISTING     PERIOD      8   STEP       30

 LAYER ROW COL. STREAM  RCH.  FLOW INTO     FLOW TO   FLOW OUT OF   OVRLND.     DIRECT     STREAM       STREAM     STREAM     STREAM   STREAMBED  STREAMBED
                SEG.NO.  NO.  STRM. RCH.    AQUIFER    STRM. RCH.    RUNOFF     PRECIP       ET          HEAD       DEPTH      WIDTH   CONDCTNC.   GRADIENT

   1    1    1     1     1    7.4999E+01  4.2231E-01   7.4577E+01  0.000E+00  0.000E+00  0.000E+00  1.09475E+03  1.698E+00  1.998E+01  8.990E-02  1.566E+00
   1    2    2     1     2    7.4577E+01  6.5422E-01   7.3923E+01  0.000E+00  0.000E+00  0.000E+00  1.08975E+03  1.692E+00  1.992E+01  1.394E-01  1.564E+00
   1    3    3     1     3    7.3923E+01  5.5813E-01   7.3365E+01  0.000E+00  0.000E+00  0.000E+00  1.08410E+03  1.685E+00  1.985E+01  1.191E-01  1.562E+00
   1    3    4     1     4    7.3365E+01  5.1411E-01   7.2851E+01  0.000E+00  0.000E+00  0.000E+00  1.07909E+03  1.679E+00  1.980E+01  1.099E-01  1.560E+00
   1    4    5     2     1    7.0851E+01  4.0967E-01   7.0441E+01  0.000E+00  0.000E+00  0.000E+00  1.07419E+03  2.252E+00  1.200E+01  7.800E-02  1.751E+00
   1    5    6     2     2    7.0441E+01  3.1471E-01   7.0126E+01  0.000E+00  0.000E+00  0.000E+00  1.06875E+03  2.245E+00  1.200E+01  6.000E-02  1.748E+00
   1    6    6     2     3    7.0126E+01  3.1435E-01   6.9812E+01  0.000E+00  0.000E+00  0.000E+00  1.06403E+03  2.239E+00  1.200E+01  6.000E-02  1.746E+00
   1    7    6     2     4    6.9812E+01  3.1399E-01   6.9498E+01  0.000E+00  0.000E+00  0.000E+00  1.05931E+03  2.233E+00  1.200E+01  6.000E-02  1.744E+00
   1    8    6     2     5    6.9498E+01  3.1363E-01   6.9184E+01  0.000E+00  0.000E+00  0.000E+00  1.05459E+03  2.227E+00  1.200E+01  6.000E-02  1.742E+00
   1    3    5     3     1    2.0000E+00  2.8252E-01   1.7175E+00  0.000E+00  0.000E+00  0.000E+00  1.07555E+03  1.909E+00  9.636E+00  7.227E-02  1.955E+00
   1    3    6     3     2    1.7175E+00  2.4905E-01   1.4684E+00  0.000E+00  0.000E+00  0.000E+00  1.07264E+03  1.727E+00  8.909E+00  6.682E-02  1.864E+00
   1    3    7     3     3    1.4684E+00  1.9718E-01   1.2712E+00  0.000E+00  0.000E+00  0.000E+00  1.06987E+03  1.555E+00  8.218E+00  5.547E-02  1.777E+00
   1    4    8     3     4    1.2712E+00  2.2567E-01   1.0456E+00  0.000E+00  0.000E+00  0.000E+00  1.06682E+03  1.364E+00  7.455E+00  6.709E-02  1.682E+00
   1    5    8     3     5    1.0456E+00  1.5790E-01   8.8768E-01  0.000E+00  0.000E+00  0.000E+00  1.06362E+03  1.164E+00  6.655E+00  4.991E-02  1.582E+00
   1    6    8     3     6    8.8768E-01  5.5980E-02   8.3170E-01  0.000E+00  0.000E+00  0.000E+00  1.06158E+03  1.036E+00  6.145E+00  1.844E-02  1.518E+00
   1    5   10     4     1    1.0000E+01  9.0919E-02   9.9091E+00  0.000E+00  0.000E+00  0.000E+00  1.07836E+03  6.368E-01  1.000E+01  2.500E-02  1.212E+00
   1    5    9     4     2    9.9091E+00  1.8158E-01   9.7275E+00  0.000E+00  0.000E+00  0.000E+00  1.07154E+03  6.315E-01  1.000E+01  5.000E-02  1.211E+00
   1    6    8     4     3    9.7275E+00  1.2689E-01   9.6006E+00  0.000E+00  0.000E+00  0.000E+00  1.06381E+03  6.256E-01  1.000E+01  3.500E-02  1.209E+00
   1    6    8     5     1    1.0432E+01  2.2686E-01   1.0205E+01  0.000E+00  0.000E+00  0.000E+00  1.05868E+03  6.790E-01  1.542E+01  6.166E-02  1.226E+00
   1    7    7     5     2    1.0205E+01  2.7894E-01   9.9265E+00  0.000E+00  0.000E+00  0.000E+00  1.05417E+03  6.732E-01  1.519E+01  7.594E-02  1.224E+00
   1    8    7     5     3    9.9265E+00  1.9221E-01   9.7343E+00  0.000E+00  0.000E+00  0.000E+00  1.04992E+03  6.676E-01  1.497E+01  5.241E-02  1.223E+00
   1    8    6     5     4    9.7343E+00  1.3577E-01   9.5985E+00  0.000E+00  0.000E+00  0.000E+00  1.04691E+03  6.637E-01  1.482E+01  3.706E-02  1.221E+00
   1    9    6     6     1    7.8783E+01  3.2569E-01   7.8457E+01  0.000E+00  0.000E+00  0.000E+00  1.04516E+03  2.428E+00  1.200E+01  6.000E-02  1.809E+00
   1   10    7     6     2    7.8457E+01  3.2533E-01   7.8132E+01  0.000E+00  0.000E+00  0.000E+00  1.04060E+03  2.422E+00  1.200E+01  6.000E-02  1.807E+00
   1   11    7     6     3    7.8132E+01  3.2497E-01   7.7807E+01  0.000E+00  0.000E+00  0.000E+00  1.03605E+03  2.416E+00  1.200E+01  6.000E-02  1.805E+00
   1   12    7     6     4    7.7807E+01  3.2461E-01   7.7482E+01  0.000E+00  0.000E+00  0.000E+00  1.03150E+03  2.410E+00  1.200E+01  6.000E-02  1.803E+00
   1   13    7     6     5    7.7482E+01  2.5721E-02   7.7457E+01  0.000E+00  0.000E+00  0.000E+00  1.02832E+03  2.407E+00  1.200E+01  2.400E-02  3.572E-01
   1   14    9     7     1    1.5000E+02  1.3316E+00   1.4867E+02  0.000E+00  0.000E+00  0.000E+00  1.03987E+03  2.288E+00  5.529E+01  5.593E-01  7.936E-01
   1   13    8     7     2    1.4867E+02  1.7983E+00   1.4687E+02  0.000E+00  0.000E+00  0.000E+00  1.03478E+03  2.279E+00  5.526E+01  6.148E-01  9.751E-01
   1   13    7     7     3    1.4687E+02  1.3661E+00   1.4550E+02  0.000E+00  0.000E+00  0.000E+00  1.02969E+03  2.271E+00  5.522E+01  5.585E-01  8.154E-01
   1   13    6     8     1    2.2296E+02  1.0158E+00   2.2194E+02  0.000E+00  0.000E+00  0.000E+00  1.02514E+03  3.265E+00  4.735E+01  4.825E-01  7.018E-01
   1   13    5     8     2    2.2194E+02  2.0176E-01   2.2174E+02  0.000E+00  0.000E+00  0.000E+00  1.01889E+03  3.262E+00  4.730E+01  4.820E-01  1.395E-01
   1   13    4     8     3    2.2174E+02 -1.9143E+00   2.2366E+02  0.000E+00  0.000E+00  0.000E+00  1.01264E+03  3.267E+00  4.737E+01  4.827E+00 -1.322E-01
   1   13    3     8     4    2.2366E+02 -3.0672E+00   2.2672E+02  0.000E+00  0.000E+00  0.000E+00  1.00641E+03  3.280E+00  4.757E+01  4.847E+00 -2.109E-01
   1   13    2     8     5    2.2672E+02 -2.5089E+00   2.2923E+02  0.000E+00  0.000E+00  0.000E+00  1.00017E+03  3.296E+00  4.779E+01  4.870E+00 -1.717E-01
   1   13    1     8     6    2.2923E+02 -1.9837E+00   2.3122E+02  0.000E+00  0.000E+00  0.000E+00  9.95183E+02  3.308E+00  4.796E+01  2.933E+00 -2.255E-01





UNSATURATED ZONE PACKAGE VOLUMETRIC BUDGET FOR  TIME STEP    30 STRESS PERIOD    8
  ------------------------------------------------------------------------------



     CUMULATIVE VOLUMES      L**3       RATES FOR THIS TIME STEP      L**3/T
     ------------------                 ------------------------

           IN:                                      IN:
           ---                                      ---
        INFILTRATION =   293079778.0223          INFILTRATION =          72.6628

          OUT:                                     OUT:
          ----                                     ----
              UZF ET =   255075535.5747                UZF ET =          58.2420
        UZF RECHARGE =       73224.0000          UZF RECHARGE =       0.0000E+00

            IN - OUT =    37931018.4476              IN - OUT =          14.4207

          STORAGE:                                 STORAGE:
          --------                                 --------
      STORAGE CHANGE =    37931019.1686        STORAGE CHANGE =          14.4207

 PERCENT DISCREPANCY IS DIFFERENCE BETWEEN IN-OUT MINUS CHANGE IN STORAGE
 DIVIDED BY THE AVERAGE OF IN AND OUT TIMES 100

 PERCENT DISCREPANCY =           0.00     PERCENT DISCREPANCY =           0.00






1
  VOLUMETRIC BUDGET FOR AGRICULTURAL FIELDS AT  END OF TIME STEP   30, STRESS PERIOD   8
  ------------------------------------------------------------------------------

     CUMULATIVE VOLUMES      L**3       RATES FOR THIS TIME STEP      L**3/T
     ------------------                 ------------------------

           IN:                                      IN:
           ---                                      ---
               AG WELLS  =   277404224.0000                 AG WELLS  =          71.8153
      DIVERSION SEGMENTS =           0.0000        DIVERSION SEGMENTS =           0.0000
       IRRIGATION PONDS  =           0.0000         IRRIGATION PONDS  =           0.0000
           GW IRRIGATION =           0.0000             GW IRRIGATION =           0.0000
           SW IRRIGATION =           0.0000             SW IRRIGATION =           0.0000
        SYSTEM LOSSES GW =           0.0000          SYSTEM LOSSES GW =           0.0000
        SYSTEM LOSSES SW =           0.0000          SYSTEM LOSSES SW =           0.0000

                TOTAL IN =   277404224.0000                  TOTAL IN =          71.8153

          OUT:                                     OUT:
          ----                                     ----
               AG WELLS  =           0.0000                 AG WELLS  =           0.0000
      DIVERSION SEGMENTS =           0.0000        DIVERSION SEGMENTS =           0.0000
       IRRIGATION PONDS  =           0.0000         IRRIGATION PONDS  =           0.0000
           GW IRRIGATION =   277404224.0000             GW IRRIGATION =          71.8153
           SW IRRIGATION =           0.0000             SW IRRIGATION =           0.0000
        SYSTEM LOSSES GW =           0.0000          SYSTEM LOSSES GW =           0.0000
        SYSTEM LOSSES SW =           0.0000          SYSTEM LOSSES SW =           0.0000

               TOTAL OUT =   277404224.0000                 TOTAL OUT =          71.8153

                IN - OUT =           0.0000                  IN - OUT =           0.0000

     PERCENT DISCREPANCY =           0.00         PERCENT DISCREPANCY =           0.00



1
  VOLUMETRIC BUDGET FOR ENTIRE MODEL AT END OF TIME STEP   30, STRESS PERIOD   8
  ------------------------------------------------------------------------------

     CUMULATIVE VOLUMES      L**3       RATES FOR THIS TIME STEP      L**3/T
     ------------------                 ------------------------

           IN:                                      IN:
           ---                                      ---
             STORAGE     =   281539744.0000               STORAGE     =          70.7373
       CONSTANT HEAD     =           0.0000         CONSTANT HEAD     =           0.0000
     HEAD DEP BOUNDS     =     5279910.5000       HEAD DEP BOUNDS     =           0.2855
      STREAM LEAKAGE     =   237080176.0000        STREAM LEAKAGE     =          13.2565
        UZF RECHARGE     =       73223.9531          UZF RECHARGE     =           0.0000
               GW ET     =           0.0000                 GW ET     =           0.0000
     SURFACE LEAKAGE     =           0.0000       SURFACE LEAKAGE     =           0.0000
           AG WELLS      =           0.0000             AG WELLS      =           0.0000

                TOTAL IN =   523973056.0000                  TOTAL IN =          84.2793

          OUT:                                     OUT:
          ----                                     ----
             STORAGE     =    45222400.0000               STORAGE     =           1.1593
       CONSTANT HEAD     =           0.0000         CONSTANT HEAD     =           0.0000
     HEAD DEP BOUNDS     =     5460587.0000       HEAD DEP BOUNDS     =           0.2986
      STREAM LEAKAGE     =   185554448.0000        STREAM LEAKAGE     =           9.4741
        UZF RECHARGE     =           0.0000          UZF RECHARGE     =           0.0000
               GW ET     =    10335242.0000                 GW ET     =           1.5318
     SURFACE LEAKAGE     =           0.0000       SURFACE LEAKAGE     =           0.0000
           AG WELLS      =   277404224.0000             AG WELLS      =          71.8153

               TOTAL OUT =   523976896.0000                 TOTAL OUT =          84.2792

                IN - OUT =       -3840.0000                  IN - OUT =       9.9182E-05

     PERCENT DISCREPANCY =          -0.00         PERCENT DISCREPANCY =           0.00






         TIME SUMMARY AT END OF TIME STEP   30 IN STRESS PERIOD    8
                    SECONDS     MINUTES      HOURS       DAYS        YEARS
                    -----------------------------------------------------------
   TIME STEP LENGTH  87667.      1461.1      24.352      1.0147     2.77799E-03
 STRESS PERIOD TIME 2.63000E+06  43833.      730.56      30.440     8.33397E-02
         TOTAL TIME 1.84964E+07 3.08274E+05  5137.9      214.08     0.58612    
1
1
                            STRESS PERIOD NO.    9, LENGTH =   2630000.    
                            -----------------------------------------------

                              NUMBER OF TIME STEPS =    30

                               MULTIPLIER FOR DELT =     1.000

                            INITIAL TIME STEP SIZE =   87666.66    

 REUSING NON-PARAMETER GHB CELLS FROM LAST STRESS PERIOD

      2 GHB CELLS

 REUSING STREAM SEGMENT DATA FROM LAST STRESS PERIOD



            AREAL INFILTRATION RATE
 READING ON UNIT   19 WITH FORMAT: (FREE)              

            1           2           3           4           5           6           7           8           9          10
 ........................................................................................................................
   1   1.0000E-10  2.0000E-10   0.000       0.000       0.000       0.000       0.000       0.000       0.000       0.000    
   2   2.0000E-10  1.0000E-10  2.0000E-10   0.000       0.000      8.0000E-10  8.0000E-10  5.0000E-10   0.000       0.000    
   3    0.000      5.0000E-10  1.0000E-10  1.0000E-10  8.0000E-10  8.0000E-10  5.0000E-10  5.0000E-10   0.000       0.000    
   4   8.0000E-10  5.0000E-10  1.0000E-10  1.0000E-10  1.0000E-10  1.0000E-10  1.0000E-10  1.0000E-10  2.0000E-10   0.000    
   5   8.0000E-10  5.0000E-10  1.0000E-10  1.0000E-10  1.0000E-10  1.0000E-10  1.0000E-10  1.0000E-10  1.0000E-10  1.0000E-10
   6   8.0000E-10  5.0000E-10  5.0000E-10  2.0000E-10  2.0000E-10  1.0000E-10  1.0000E-10  1.0000E-10  1.0000E-10  5.0000E-10
   7   8.0000E-10  5.0000E-10  5.0000E-10  2.0000E-10  2.0000E-10  1.0000E-10  1.0000E-10  2.0000E-10  2.0000E-10   0.000    
   8    0.000      5.0000E-10  5.0000E-10  2.0000E-10  2.0000E-10  1.0000E-10  1.0000E-10  2.0000E-10  5.0000E-10   0.000    
   9    0.000      5.0000E-10  5.0000E-10  2.0000E-10  2.0000E-10  1.0000E-10  1.0000E-10  2.0000E-10  5.0000E-10   0.000    
  10    0.000      5.0000E-10  5.0000E-10  2.0000E-10  2.0000E-10  1.0000E-10  1.0000E-10  2.0000E-10  5.0000E-10  8.0000E-10
  11    0.000      1.0000E-10  1.0000E-10  1.0000E-10  1.0000E-10  1.0000E-10  1.0000E-10  2.0000E-10  5.0000E-10   0.000    
  12   1.0000E-10  1.0000E-10  1.0000E-10  1.0000E-10  1.0000E-10  1.0000E-10  1.0000E-10  1.0000E-10  2.0000E-10   0.000    
  13   1.0000E-10  1.0000E-10  2.0000E-10  2.0000E-10  2.0000E-10  2.0000E-10  2.0000E-10  1.0000E-10  1.0000E-10   0.000    
  14    0.000      2.0000E-10  5.0000E-10  5.0000E-10  5.0000E-10  5.0000E-10  5.0000E-10  2.0000E-10  1.0000E-10   0.000    
  15    0.000       0.000      8.0000E-10  8.0000E-10  8.0000E-10  8.0000E-10   0.000       0.000       0.000       0.000    

                  ET RATE =  3.250000E-07

 USING ET EXTINCTION DEPTH FROM PREVIOUS STRESS PERIOD. CURRENT PERIOD IS:       9

 USING EXTINCTION WATER CONTENT FROM PREVIOUS STRESS PERIOD. CURRENT PERIOD IS:       9

 USING AIR ENTRY PRESSURE FROM PREVIOUS STRESS PERIOD. CURRENT PERIOD IS:       9

 USING ROOT PRESSURE HEAD FROM PREVIOUS STRESS PERIOD. CURRENT PERIOD IS:       9

 USING ROOT ACTIVITY FROM PREVIOUS STRESS PERIOD. CURRENT PERIOD IS:       9

 PROCESSING AG STRESS PERIOD DATA

 READING AG STRESS PERIOD DATA

 READING IRRIGATION WELL

 NO IRRPOND OR REUSING IRRPOND DATA FROM LAST STRESS PERIOD

 END PROCESSING AG STRESS PERIOD DATA OPTIONS
 
 SOLVING FOR HEAD 
                                                   Max.-Head-Change                         Max.-Flux-Residual
  Residual-Control   Outer-Iter.   Inner-Iter.     Column Row Layer    Maximum-Head-Change  Column Row Layer    Maximum-Flux-Residual          L2-NORM 
          0                 1           2             4    7     1      -0.8313452994E-01       4    7    1        -0.4383914252E+01      0.1033735292E+02
          0                 2           2             4    7     1       0.8086537816E-02       4    7    1         0.4383788234E+00      0.1033693815E+01
          0                 3           2             4    7     1      -0.5506650551E-03       4    7    1        -0.3068665013E-01      0.7235563248E-01
          0                 4           1             4    7     1       0.2191146954E-04       4    7    1         0.1255085176E-02      0.2959149261E-02

    ------------------------------------------------
       NWT REQUIRED            4 OUTER ITERATIONS 
       AND A TOTAL OF          7 INNER ITERATIONS.
    ------------------------------------------------

 NO OUTPUT CONTROL FOR STRESS PERIOD    9   TIME STEP    1
 
 SOLVING FOR HEAD 
                                                   Max.-Head-Change                         Max.-Flux-Residual
  Residual-Control   Outer-Iter.   Inner-Iter.     Column Row Layer    Maximum-Head-Change  Column Row Layer    Maximum-Flux-Residual          L2-NORM 
          0                 1           2             5    8     1       0.1126353256E+00       5    8    1         0.6137960176E+01      0.1469840846E+02
          0                 2           2             5    7     1      -0.1589110899E+00       5    8    1        -0.8733766117E+01      0.2117555870E+02
          0                 3           2             5    7     1       0.1082115109E-01       5    8    1         0.6113580774E+00      0.1482274427E+01
          0                 4           2             5    7     1      -0.4305842251E-03       5    8    1        -0.2500460717E-01      0.6062517023E-01
          0                 5           1             5    7     1       0.5309296440E-05       5    8    1         0.3168854023E-03      0.7683131363E-03

    ------------------------------------------------
       NWT REQUIRED            5 OUTER ITERATIONS 
       AND A TOTAL OF          9 INNER ITERATIONS.
    ------------------------------------------------

 NO OUTPUT CONTROL FOR STRESS PERIOD    9   TIME STEP    2
 
 SOLVING FOR HEAD 
                                                   Max.-Head-Change                         Max.-Flux-Residual
  Residual-Control   Outer-Iter.   Inner-Iter.     Column Row Layer    Maximum-Head-Change  Column Row Layer    Maximum-Flux-Residual          L2-NORM 
          0                 1           2             5    8     1       0.1119047538E+00       5    8    1         0.6095848723E+01      0.1466344670E+02
          0                 2           2             5    7     1      -0.1589489727E+00       5    8    1        -0.8729555132E+01      0.2117615200E+02
          0                 3           2             5    7     1       0.1082343894E-01       5    8    1         0.6110471232E+00      0.1482276239E+01
          0                 4           2             5    7     1      -0.4306752652E-03       5    8    1        -0.2499188899E-01      0.6062524817E-01
          0                 5           1             5    7     1       0.5310418940E-05       5    8    1         0.3167242094E-03      0.7683085239E-03

    ------------------------------------------------
       NWT REQUIRED            5 OUTER ITERATIONS 
       AND A TOTAL OF          9 INNER ITERATIONS.
    ------------------------------------------------

 NO OUTPUT CONTROL FOR STRESS PERIOD    9   TIME STEP    3
 
 SOLVING FOR HEAD 
                                                   Max.-Head-Change                         Max.-Flux-Residual
  Residual-Control   Outer-Iter.   Inner-Iter.     Column Row Layer    Maximum-Head-Change  Column Row Layer    Maximum-Flux-Residual          L2-NORM 
          0                 1           2             5    8     1       0.1112472255E+00       5    8    1         0.6057872428E+01      0.1463381092E+02
          0                 2           2             5    7     1      -0.1589852572E+00       5    8    1        -0.8725757648E+01      0.2117696666E+02
          0                 3           2             5    7     1       0.1082590888E-01       5    8    1         0.6107813240E+00      0.1482333226E+01
          0                 4           2             5    7     1      -0.4307735504E-03       5    8    1        -0.2498101768E-01      0.6062757876E-01
          0                 5           1             5    7     1       0.5311630829E-05       5    8    1         0.3165864655E-03      0.7683385525E-03

    ------------------------------------------------
       NWT REQUIRED            5 OUTER ITERATIONS 
       AND A TOTAL OF          9 INNER ITERATIONS.
    ------------------------------------------------

 NO OUTPUT CONTROL FOR STRESS PERIOD    9   TIME STEP    4
 
 SOLVING FOR HEAD 
                                                   Max.-Head-Change                         Max.-Flux-Residual
  Residual-Control   Outer-Iter.   Inner-Iter.     Column Row Layer    Maximum-Head-Change  Column Row Layer    Maximum-Flux-Residual          L2-NORM 
          0                 1           2             5    8     1       0.1106567435E+00       5    8    1         0.6023690538E+01      0.1460894677E+02
          0                 2           2             5    7     1      -0.1590201410E+00       5    8    1        -0.8722339591E+01      0.2117798324E+02
          0                 3           2             5    7     1       0.1082828349E-01       5    8    1         0.6105420824E+00      0.1482404347E+01
          0                 4           2             5    7     1      -0.4308680425E-03       5    8    1        -0.2497123258E-01      0.6063048982E-01
          0                 5           1             5    7     1       0.5312795895E-05       5    8    1         0.3164624468E-03      0.7683763834E-03

    ------------------------------------------------
       NWT REQUIRED            5 OUTER ITERATIONS 
       AND A TOTAL OF          9 INNER ITERATIONS.
    ------------------------------------------------

 NO OUTPUT CONTROL FOR STRESS PERIOD    9   TIME STEP    5
 
 SOLVING FOR HEAD 
                                                   Max.-Head-Change                         Max.-Flux-Residual
  Residual-Control   Outer-Iter.   Inner-Iter.     Column Row Layer    Maximum-Head-Change  Column Row Layer    Maximum-Flux-Residual          L2-NORM 
          0                 1           2             5    8     1       0.1101278301E+00       5    8    1         0.5992992641E+01      0.1458839206E+02
          0                 2           2             5    7     1      -0.1590537836E+00       5    8    1        -0.8719269922E+01      0.2117918394E+02
          0                 3           2             5    7     1       0.1083057365E-01       5    8    1         0.6103272260E+00      0.1482488354E+01
          0                 4           2             5    7     1      -0.4309591740E-03       5    8    1        -0.2496244484E-01      0.6063392703E-01
          0                 5           1             5    7     1       0.5313919628E-05       5    8    1         0.3163510737E-03      0.7684185253E-03

    ------------------------------------------------
       NWT REQUIRED            5 OUTER ITERATIONS 
       AND A TOTAL OF          9 INNER ITERATIONS.
    ------------------------------------------------

 NO OUTPUT CONTROL FOR STRESS PERIOD    9   TIME STEP    6
 
 SOLVING FOR HEAD 
                                                   Max.-Head-Change                         Max.-Flux-Residual
  Residual-Control   Outer-Iter.   Inner-Iter.     Column Row Layer    Maximum-Head-Change  Column Row Layer    Maximum-Flux-Residual          L2-NORM 
          0                 1           2             5    8     1       0.1096556314E+00       5    8    1         0.5965502555E+01      0.1457174945E+02
          0                 2           2             5    7     1      -0.1590863389E+00       5    8    1        -0.8716521024E+01      0.2118055397E+02
          0                 3           2             5    7     1       0.1083278982E-01       5    8    1         0.6101348216E+00      0.1482584213E+01
          0                 4           2             5    7     1      -0.4310473610E-03       5    8    1        -0.2495457542E-01      0.6063784905E-01
          0                 5           1             5    7     1       0.5315007068E-05       5    8    1         0.3162513626E-03      0.7684685994E-03

    ------------------------------------------------
       NWT REQUIRED            5 OUTER ITERATIONS 
       AND A TOTAL OF          9 INNER ITERATIONS.
    ------------------------------------------------

 NO OUTPUT CONTROL FOR STRESS PERIOD    9   TIME STEP    7
 
 SOLVING FOR HEAD 
                                                   Max.-Head-Change                         Max.-Flux-Residual
  Residual-Control   Outer-Iter.   Inner-Iter.     Column Row Layer    Maximum-Head-Change  Column Row Layer    Maximum-Flux-Residual          L2-NORM 
          0                 1           2             5    8     1       0.1092352905E+00       5    8    1         0.5940945141E+01      0.1455865931E+02
          0                 2           2             5    7     1      -0.1591179412E+00       5    8    1        -0.8714065384E+01      0.2118207823E+02
          0                 3           2             5    7     1       0.1083494114E-01       5    8    1         0.6099629435E+00      0.1482690868E+01
          0                 4           2             5    7     1      -0.4311329673E-03       5    8    1        -0.2494754549E-01      0.6064221105E-01
          0                 5           1             5    7     1       0.5316062696E-05       5    8    1         0.3161622494E-03      0.7685243606E-03

    ------------------------------------------------
       NWT REQUIRED            5 OUTER ITERATIONS 
       AND A TOTAL OF          9 INNER ITERATIONS.
    ------------------------------------------------

 NO OUTPUT CONTROL FOR STRESS PERIOD    9   TIME STEP    8
 
 SOLVING FOR HEAD 
                                                   Max.-Head-Change                         Max.-Flux-Residual
  Residual-Control   Outer-Iter.   Inner-Iter.     Column Row Layer    Maximum-Head-Change  Column Row Layer    Maximum-Flux-Residual          L2-NORM 
          0                 1           2             5    8     1       0.1088627794E+00       5    8    1         0.5919092060E+01      0.1454881252E+02
          0                 2           2             4    7     1      -0.1591606269E+00       5    8    1        -0.8711880170E+01      0.2118374298E+02
          0                 3           2             4    7     1       0.1083784302E-01       5    8    1         0.6098099937E+00      0.1482807360E+01
          0                 4           2             4    7     1      -0.4312484445E-03       5    8    1        -0.2494128977E-01      0.6064697661E-01
          0                 5           1             4    7     1       0.5317479571E-05       5    8    1         0.3160829701E-03      0.7685848366E-03

    ------------------------------------------------
       NWT REQUIRED            5 OUTER ITERATIONS 
       AND A TOTAL OF          9 INNER ITERATIONS.
    ------------------------------------------------

 NO OUTPUT CONTROL FOR STRESS PERIOD    9   TIME STEP    9
 
 SOLVING FOR HEAD 
                                                   Max.-Head-Change                         Max.-Flux-Residual
  Residual-Control   Outer-Iter.   Inner-Iter.     Column Row Layer    Maximum-Head-Change  Column Row Layer    Maximum-Flux-Residual          L2-NORM 
          0                 1           2             5    8     1       0.1085342860E+00       5    8    1         0.5899726648E+01      0.1454194209E+02
          0                 2           2             4    7     1      -0.1592460681E+00       5    8    1        -0.8709943715E+01      0.2118553948E+02
          0                 3           2             4    7     1       0.1084366022E-01       5    8    1         0.6096744556E+00      0.1482933074E+01
          0                 4           2             4    7     1      -0.4314799212E-03       5    8    1        -0.2493574620E-01      0.6065211863E-01
          0                 5           1             4    7     1       0.5320333485E-05       5    8    1         0.3160127148E-03      0.7686497746E-03

    ------------------------------------------------
       NWT REQUIRED            5 OUTER ITERATIONS 
       AND A TOTAL OF          9 INNER ITERATIONS.
    ------------------------------------------------

 NO OUTPUT CONTROL FOR STRESS PERIOD    9   TIME STEP   10
 
 SOLVING FOR HEAD 
                                                   Max.-Head-Change                         Max.-Flux-Residual
  Residual-Control   Outer-Iter.   Inner-Iter.     Column Row Layer    Maximum-Head-Change  Column Row Layer    Maximum-Flux-Residual          L2-NORM 
          0                 1           2             5    8     1       0.1082461721E+00       5    8    1         0.5882643434E+01      0.1453776460E+02
          0                 2           2             4    7     1      -0.1593284368E+00       5    8    1        -0.8708235474E+01      0.2118745150E+02
          0                 3           2             4    7     1       0.1084926824E-01       5    8    1         0.6095548910E+00      0.1483066875E+01
          0                 4           2             4    7     1      -0.4317030745E-03       5    8    1        -0.2493085595E-01      0.6065759138E-01
          0                 5           1             4    7     1       0.5323085466E-05       5    8    1         0.3159507328E-03      0.7687204790E-03

    ------------------------------------------------
       NWT REQUIRED            5 OUTER ITERATIONS 
       AND A TOTAL OF          9 INNER ITERATIONS.
    ------------------------------------------------

 NO OUTPUT CONTROL FOR STRESS PERIOD    9   TIME STEP   11
 
 SOLVING FOR HEAD 
                                                   Max.-Head-Change                         Max.-Flux-Residual
  Residual-Control   Outer-Iter.   Inner-Iter.     Column Row Layer    Maximum-Head-Change  Column Row Layer    Maximum-Flux-Residual          L2-NORM 
          0                 1           2             5    8     1       0.1079951147E+00       5    8    1         0.5867653792E+01      0.1453606818E+02
          0                 2           2             4    7     1      -0.1594079654E+00       5    8    1        -0.8706560866E+01      0.2118947141E+02
          0                 3           2             4    7     1       0.1085468293E-01       5    8    1         0.6094376803E+00      0.1483208230E+01
          0                 4           2             4    7     1      -0.4319185339E-03       5    8    1        -0.2492606196E-01      0.6066337187E-01
          0                 5           1             4    7     1       0.5325741674E-05       5    8    1         0.3158899949E-03      0.7687921376E-03

    ------------------------------------------------
       NWT REQUIRED            5 OUTER ITERATIONS 
       AND A TOTAL OF          9 INNER ITERATIONS.
    ------------------------------------------------

 NO OUTPUT CONTROL FOR STRESS PERIOD    9   TIME STEP   12
 
 SOLVING FOR HEAD 
                                                   Max.-Head-Change                         Max.-Flux-Residual
  Residual-Control   Outer-Iter.   Inner-Iter.     Column Row Layer    Maximum-Head-Change  Column Row Layer    Maximum-Flux-Residual          L2-NORM 
          0                 1           2             5    8     1       0.1077884572E+00       5    8    1         0.5854807848E+01      0.1453662121E+02
          0                 2           2             4    7     1      -0.1594846124E+00       5    8    1        -0.8705452264E+01      0.2119158908E+02
          0                 3           2             4    7     1       0.1085990140E-01       5    8    1         0.6093600844E+00      0.1483356429E+01
          0                 4           2             4    7     1      -0.4321261862E-03       5    8    1        -0.2492288826E-01      0.6066943447E-01
          0                 5           1             4    7     1       0.5328302221E-05       5    8    1         0.3158497707E-03      0.7688688458E-03

    ------------------------------------------------
       NWT REQUIRED            5 OUTER ITERATIONS 
       AND A TOTAL OF          9 INNER ITERATIONS.
    ------------------------------------------------

 NO OUTPUT CONTROL FOR STRESS PERIOD    9   TIME STEP   13
 
 SOLVING FOR HEAD 
                                                   Max.-Head-Change                         Max.-Flux-Residual
  Residual-Control   Outer-Iter.   Inner-Iter.     Column Row Layer    Maximum-Head-Change  Column Row Layer    Maximum-Flux-Residual          L2-NORM 
          0                 1           2             5    8     1       0.1076099311E+00       5    8    1         0.5843929320E+01      0.1453924906E+02
          0                 2           2             4    7     1      -0.1595586579E+00       5    8    1        -0.8704364463E+01      0.2119379522E+02
          0                 3           2             4    7     1       0.1086494277E-01       5    8    1         0.6092839471E+00      0.1483510823E+01
          0                 4           2             4    7     1      -0.4323267914E-03       5    8    1        -0.2491977420E-01      0.6067575020E-01
          0                 5           1             4    7     1       0.5330775956E-05       5    8    1         0.3158103100E-03      0.7689502554E-03

    ------------------------------------------------
       NWT REQUIRED            5 OUTER ITERATIONS 
       AND A TOTAL OF          9 INNER ITERATIONS.
    ------------------------------------------------

 NO OUTPUT CONTROL FOR STRESS PERIOD    9   TIME STEP   14
 
 SOLVING FOR HEAD 
                                                   Max.-Head-Change                         Max.-Flux-Residual
  Residual-Control   Outer-Iter.   Inner-Iter.     Column Row Layer    Maximum-Head-Change  Column Row Layer    Maximum-Flux-Residual          L2-NORM 
          0                 1           2             5    8     1       0.1074596893E+00       5    8    1         0.5834638539E+01      0.1454374680E+02
          0                 2           2             4    7     1      -0.1596302123E+00       5    8    1        -0.8703435439E+01      0.2119608080E+02
          0                 3           2             4    7     1       0.1086981456E-01       5    8    1         0.6092189220E+00      0.1483670778E+01
          0                 4           2             4    7     1      -0.4325206479E-03       5    8    1        -0.2491711465E-01      0.6068229216E-01
          0                 5           1             4    7     1       0.5333166129E-05       5    8    1         0.3157766018E-03      0.7690321695E-03

    ------------------------------------------------
       NWT REQUIRED            5 OUTER ITERATIONS 
       AND A TOTAL OF          9 INNER ITERATIONS.
    ------------------------------------------------

 NO OUTPUT CONTROL FOR STRESS PERIOD    9   TIME STEP   15
 
 SOLVING FOR HEAD 
                                                   Max.-Head-Change                         Max.-Flux-Residual
  Residual-Control   Outer-Iter.   Inner-Iter.     Column Row Layer    Maximum-Head-Change  Column Row Layer    Maximum-Flux-Residual          L2-NORM 
          0                 1           2             5    8     1       0.1073353768E+00       5    8    1         0.5826812373E+01      0.1454994669E+02
          0                 2           2             4    7     1      -0.1596993933E+00       5    8    1        -0.8702652873E+01      0.2119844126E+02
          0                 3           2             4    7     1       0.1087452475E-01       5    8    1         0.6091641501E+00      0.1483835975E+01
          0                 4           2             4    7     1      -0.4327080748E-03       5    8    1        -0.2491487444E-01      0.6068904909E-01
          0                 5           1             4    7     1       0.5335477331E-05       5    8    1         0.3157482161E-03      0.7691368727E-03

    ------------------------------------------------
       NWT REQUIRED            5 OUTER ITERATIONS 
       AND A TOTAL OF          9 INNER ITERATIONS.
    ------------------------------------------------

 NO OUTPUT CONTROL FOR STRESS PERIOD    9   TIME STEP   16
 
 SOLVING FOR HEAD 
                                                   Max.-Head-Change                         Max.-Flux-Residual
  Residual-Control   Outer-Iter.   Inner-Iter.     Column Row Layer    Maximum-Head-Change  Column Row Layer    Maximum-Flux-Residual          L2-NORM 
          0                 1           2             5    8     1       0.1072354022E+00       5    8    1         0.5820350822E+01      0.1455770038E+02
          0                 2           2             4    7     1      -0.1597663246E+00       5    8    1        -0.8702006771E+01      0.2120086414E+02
          0                 3           2             4    7     1       0.1087908179E-01       5    8    1         0.6091189266E+00      0.1484005542E+01
          0                 4           2             4    7     1      -0.4328894068E-03       5    8    1        -0.2491302477E-01      0.6069598441E-01
          0                 5           1             4    7     1       0.5337713259E-05       5    8    1         0.3157247793E-03      0.7692053757E-03

    ------------------------------------------------
       NWT REQUIRED            5 OUTER ITERATIONS 
       AND A TOTAL OF          9 INNER ITERATIONS.
    ------------------------------------------------

 NO OUTPUT CONTROL FOR STRESS PERIOD    9   TIME STEP   17
 
 SOLVING FOR HEAD 
                                                   Max.-Head-Change                         Max.-Flux-Residual
  Residual-Control   Outer-Iter.   Inner-Iter.     Column Row Layer    Maximum-Head-Change  Column Row Layer    Maximum-Flux-Residual          L2-NORM 
          0                 1           2             5    8     1       0.1071575682E+00       5    8    1         0.5815143445E+01      0.1456689471E+02
          0                 2           2             4    7     1      -0.1598448546E+00       5    8    1        -0.8701486083E+01      0.2120334572E+02
          0                 3           2             4    7     1       0.1088442839E-01       5    8    1         0.6090824788E+00      0.1484179220E+01
          0                 4           2             4    7     1      -0.4331021584E-03       5    8    1        -0.2491153405E-01      0.6070308784E-01
          0                 5           1             4    7     1       0.5340336535E-05       5    8    1         0.3157058668E-03      0.7692951802E-03

    ------------------------------------------------
       NWT REQUIRED            5 OUTER ITERATIONS 
       AND A TOTAL OF          9 INNER ITERATIONS.
    ------------------------------------------------

 NO OUTPUT CONTROL FOR STRESS PERIOD    9   TIME STEP   18
 
 SOLVING FOR HEAD 
                                                   Max.-Head-Change                         Max.-Flux-Residual
  Residual-Control   Outer-Iter.   Inner-Iter.     Column Row Layer    Maximum-Head-Change  Column Row Layer    Maximum-Flux-Residual          L2-NORM 
          0                 1           2             5    8     1       0.1071005990E+00       5    8    1         0.5811090430E+01      0.1457744082E+02
          0                 2           2             4    7     1      -0.1598938400E+00       5    8    1        -0.8701080823E+01      0.2120588473E+02
          0                 3           2             4    7     1       0.1088776372E-01       5    8    1         0.6090541187E+00      0.1484356919E+01
          0                 4           2             4    7     1      -0.4332348757E-03       5    8    1        -0.2491037407E-01      0.6071035664E-01
          0                 5           1             4    7     1       0.5341973071E-05       5    8    1         0.3156911712E-03      0.7693882288E-03

    ------------------------------------------------
       NWT REQUIRED            5 OUTER ITERATIONS 
       AND A TOTAL OF          9 INNER ITERATIONS.
    ------------------------------------------------

 NO OUTPUT CONTROL FOR STRESS PERIOD    9   TIME STEP   19
 
 SOLVING FOR HEAD 
                                                   Max.-Head-Change                         Max.-Flux-Residual
  Residual-Control   Outer-Iter.   Inner-Iter.     Column Row Layer    Maximum-Head-Change  Column Row Layer    Maximum-Flux-Residual          L2-NORM 
          0                 1           2             5    8     1       0.1070623985E+00       5    8    1         0.5808107815E+01      0.1458919085E+02
          0                 2           2             4    7     1      -0.1599530656E+00       5    8    1        -0.8700782604E+01      0.2120846911E+02
          0                 3           2             4    7     1       0.1089179616E-01       5    8    1         0.6090332472E+00      0.1484537795E+01
          0                 4           2             4    7     1      -0.4333953333E-03       5    8    1        -0.2490952039E-01      0.6071775437E-01
          0                 5           1             4    7     1       0.5343951701E-05       5    8    1         0.3156803600E-03      0.7695026516E-03

    ------------------------------------------------
       NWT REQUIRED            5 OUTER ITERATIONS 
       AND A TOTAL OF          9 INNER ITERATIONS.
    ------------------------------------------------

 NO OUTPUT CONTROL FOR STRESS PERIOD    9   TIME STEP   20
 
 SOLVING FOR HEAD 
                                                   Max.-Head-Change                         Max.-Flux-Residual
  Residual-Control   Outer-Iter.   Inner-Iter.     Column Row Layer    Maximum-Head-Change  Column Row Layer    Maximum-Flux-Residual          L2-NORM 
          0                 1           2             5    8     1       0.1070416847E+00       5    8    1         0.5806114627E+01      0.1460202950E+02
          0                 2           2             4    7     1      -0.1600105847E+00       5    8    1        -0.8700583326E+01      0.2121109479E+02
          0                 3           2             4    7     1       0.1089571241E-01       5    8    1         0.6090193010E+00      0.1484721563E+01
          0                 4           2             4    7     1      -0.4335511674E-03       5    8    1        -0.2490895001E-01      0.6072527056E-01
          0                 5           1             4    7     1       0.5345872980E-05       5    8    1         0.3156731395E-03      0.7695763234E-03

    ------------------------------------------------
       NWT REQUIRED            5 OUTER ITERATIONS 
       AND A TOTAL OF          9 INNER ITERATIONS.
    ------------------------------------------------

 NO OUTPUT CONTROL FOR STRESS PERIOD    9   TIME STEP   21
 
 SOLVING FOR HEAD 
                                                   Max.-Head-Change                         Max.-Flux-Residual
  Residual-Control   Outer-Iter.   Inner-Iter.     Column Row Layer    Maximum-Head-Change  Column Row Layer    Maximum-Flux-Residual          L2-NORM 
          0                 1           2             5    8     1       0.1070368668E+00       5    8    1         0.5805020276E+01      0.1461586384E+02
          0                 2           2             4    7     1      -0.1600665069E+00       5    8    1        -0.8700473931E+01      0.2121375770E+02
          0                 3           2             4    7     1       0.1089951995E-01       5    8    1         0.6090116461E+00      0.1484907938E+01
          0                 4           2             4    7     1      -0.4337026753E-03       5    8    1        -0.2490863690E-01      0.6073289349E-01
          0                 5           1             4    7     1       0.5347740715E-05       5    8    1         0.3156691682E-03      0.7696731434E-03

    ------------------------------------------------
       NWT REQUIRED            5 OUTER ITERATIONS 
       AND A TOTAL OF          9 INNER ITERATIONS.
    ------------------------------------------------

 NO OUTPUT CONTROL FOR STRESS PERIOD    9   TIME STEP   22
 
 SOLVING FOR HEAD 
                                                   Max.-Head-Change                         Max.-Flux-Residual
  Residual-Control   Outer-Iter.   Inner-Iter.     Column Row Layer    Maximum-Head-Change  Column Row Layer    Maximum-Flux-Residual          L2-NORM 
          0                 1           2             5    8     1       0.1070468898E+00       5    8    1         0.5804765723E+01      0.1463060067E+02
          0                 2           2             4    7     1      -0.1601208707E+00       5    8    1        -0.8700448515E+01      0.2121645311E+02
          0                 3           2             4    7     1       0.1090322140E-01       5    8    1         0.6090098693E+00      0.1485096587E+01
          0                 4           2             4    7     1      -0.4338499618E-03       5    8    1        -0.2490856422E-01      0.6074060943E-01
          0                 5           1             4    7     1       0.5349556924E-05       5    8    1         0.3156682401E-03      0.7697758929E-03

    ------------------------------------------------
       NWT REQUIRED            5 OUTER ITERATIONS 
       AND A TOTAL OF          9 INNER ITERATIONS.
    ------------------------------------------------

 NO OUTPUT CONTROL FOR STRESS PERIOD    9   TIME STEP   23
 
 SOLVING FOR HEAD 
                                                   Max.-Head-Change                         Max.-Flux-Residual
  Residual-Control   Outer-Iter.   Inner-Iter.     Column Row Layer    Maximum-Head-Change  Column Row Layer    Maximum-Flux-Residual          L2-NORM 
          0                 1           2             5    8     1       0.1070702312E+00       5    8    1         0.5805265011E+01      0.1464615636E+02
          0                 2           2             4    7     1      -0.1601737777E+00       5    8    1        -0.8700498482E+01      0.2121917636E+02
          0                 3           2             4    7     1       0.1090682366E-01       5    8    1         0.6090133688E+00      0.1485287186E+01
          0                 4           2             4    7     1      -0.4339933015E-03       5    8    1        -0.2490870734E-01      0.6074840526E-01
          0                 5           1             4    7     1       0.5351324406E-05       5    8    1         0.3156700709E-03      0.7698701968E-03

    ------------------------------------------------
       NWT REQUIRED            5 OUTER ITERATIONS 
       AND A TOTAL OF          9 INNER ITERATIONS.
    ------------------------------------------------

 NO OUTPUT CONTROL FOR STRESS PERIOD    9   TIME STEP   24
 
 SOLVING FOR HEAD 
                                                   Max.-Head-Change                         Max.-Flux-Residual
  Residual-Control   Outer-Iter.   Inner-Iter.     Column Row Layer    Maximum-Head-Change  Column Row Layer    Maximum-Flux-Residual          L2-NORM 
          0                 1           2             5    8     1       0.1071060475E+00       5    8    1         0.5806470460E+01      0.1466246809E+02
          0                 2           2             4    7     1      -0.1602252982E+00       5    8    1        -0.8700619065E+01      0.2122192520E+02
          0                 3           2             4    7     1       0.1091033153E-01       5    8    1         0.6090218110E+00      0.1485479579E+01
          0                 4           2             4    7     1      -0.4341328856E-03       5    8    1        -0.2490905263E-01      0.6075627400E-01
          0                 5           1             4    7     1       0.5353045738E-05       5    8    1         0.3156744360E-03      0.7699694783E-03

    ------------------------------------------------
       NWT REQUIRED            5 OUTER ITERATIONS 
       AND A TOTAL OF          9 INNER ITERATIONS.
    ------------------------------------------------

 NO OUTPUT CONTROL FOR STRESS PERIOD    9   TIME STEP   25
 
 SOLVING FOR HEAD 
                                                   Max.-Head-Change                         Max.-Flux-Residual
  Residual-Control   Outer-Iter.   Inner-Iter.     Column Row Layer    Maximum-Head-Change  Column Row Layer    Maximum-Flux-Residual          L2-NORM 
          0                 1           2             5    8     1       0.1071532814E+00       5    8    1         0.5808322712E+01      0.1467946488E+02
          0                 2           2             4    7     1      -0.1602754710E+00       5    8    1        -0.8700804327E+01      0.2122469908E+02
          0                 3           2             4    7     1       0.1091374764E-01       5    8    1         0.6090347803E+00      0.1485673727E+01
          0                 4           2             4    7     1      -0.4342688185E-03       5    8    1        -0.2490958307E-01      0.6076421493E-01
          0                 5           1             4    7     1       0.5354722264E-05       5    8    1         0.3156811672E-03      0.7700701880E-03

    ------------------------------------------------
       NWT REQUIRED            5 OUTER ITERATIONS 
       AND A TOTAL OF          9 INNER ITERATIONS.
    ------------------------------------------------

 NO OUTPUT CONTROL FOR STRESS PERIOD    9   TIME STEP   26
 
 SOLVING FOR HEAD 
                                                   Max.-Head-Change                         Max.-Flux-Residual
  Residual-Control   Outer-Iter.   Inner-Iter.     Column Row Layer    Maximum-Head-Change  Column Row Layer    Maximum-Flux-Residual          L2-NORM 
          0                 1           2             5    8     1       0.1072108457E+00       5    8    1         0.5810759415E+01      0.1469701826E+02
          0                 2           2             4    7     1      -0.1603243663E+00       5    8    1        -0.8701048033E+01      0.2122748187E+02
          0                 3           2             4    7     1       0.1091707678E-01       5    8    1         0.6090518405E+00      0.1485868495E+01
          0                 4           2             4    7     1      -0.4344012898E-03       5    8    1        -0.2491028082E-01      0.6077218108E-01
          0                 5           1             4    7     1       0.5356355216E-05       5    8    1         0.3156899943E-03      0.7701711638E-03

    ------------------------------------------------
       NWT REQUIRED            5 OUTER ITERATIONS 
       AND A TOTAL OF          9 INNER ITERATIONS.
    ------------------------------------------------

 NO OUTPUT CONTROL FOR STRESS PERIOD    9   TIME STEP   27
 
 SOLVING FOR HEAD 
                                                   Max.-Head-Change                         Max.-Flux-Residual
  Residual-Control   Outer-Iter.   Inner-Iter.     Column Row Layer    Maximum-Head-Change  Column Row Layer    Maximum-Flux-Residual          L2-NORM 
          0                 1           2             5    8     1       0.1072779854E+00       5    8    1         0.5813739011E+01      0.1471513098E+02
          0                 2           2             4    7     1      -0.1603720523E+00       5    8    1        -0.8701346028E+01      0.2123028417E+02
          0                 3           2             4    7     1       0.1092032359E-01       5    8    1         0.6090727005E+00      0.1486064630E+01
          0                 4           2             4    7     1      -0.4345304853E-03       5    8    1        -0.2491113400E-01      0.6078020309E-01
          0                 5           1             4    7     1       0.5357948291E-05       5    8    1         0.3157008105E-03      0.7702728278E-03

    ------------------------------------------------
       NWT REQUIRED            5 OUTER ITERATIONS 
       AND A TOTAL OF          9 INNER ITERATIONS.
    ------------------------------------------------

 NO OUTPUT CONTROL FOR STRESS PERIOD    9   TIME STEP   28
 
 SOLVING FOR HEAD 
                                                   Max.-Head-Change                         Max.-Flux-Residual
  Residual-Control   Outer-Iter.   Inner-Iter.     Column Row Layer    Maximum-Head-Change  Column Row Layer    Maximum-Flux-Residual          L2-NORM 
          0                 1           2             5    8     1       0.1073538858E+00       5    8    1         0.5817215328E+01      0.1473375393E+02
          0                 2           2             4    7     1      -0.1604185749E+00       5    8    1        -0.8701693695E+01      0.2123309861E+02
          0                 3           2             4    7     1       0.1092349119E-01       5    8    1         0.6090970372E+00      0.1486261617E+01
          0                 4           2             4    7     1      -0.4346565295E-03       5    8    1        -0.2491212938E-01      0.6078826027E-01
          0                 5           1             4    7     1       0.5359502609E-05       5    8    1         0.3157134352E-03      0.7707562719E-03

    ------------------------------------------------
       NWT REQUIRED            5 OUTER ITERATIONS 
       AND A TOTAL OF          9 INNER ITERATIONS.
    ------------------------------------------------

 NO OUTPUT CONTROL FOR STRESS PERIOD    9   TIME STEP   29
 
 SOLVING FOR HEAD 
                                                   Max.-Head-Change                         Max.-Flux-Residual
  Residual-Control   Outer-Iter.   Inner-Iter.     Column Row Layer    Maximum-Head-Change  Column Row Layer    Maximum-Flux-Residual          L2-NORM 
          0                 1           2             5    8     1       0.1074377878E+00       5    8    1         0.5821145876E+01      0.1475284201E+02
          0                 2           2             4    7     1      -0.1604640018E+00       5    8    1        -0.8702086784E+01      0.2123592293E+02
          0                 3           2             4    7     1       0.1092658420E-01       5    8    1         0.6091245533E+00      0.1486459295E+01
          0                 4           2             4    7     1      -0.4347796046E-03       5    8    1        -0.2491325476E-01      0.6079634524E-01
          0                 5           1             4    7     1       0.5361020186E-05       5    8    1         0.3157276942E-03      0.7704772434E-03

    ------------------------------------------------
       NWT REQUIRED            5 OUTER ITERATIONS 
       AND A TOTAL OF          9 INNER ITERATIONS.
    ------------------------------------------------

 NO OUTPUT CONTROL FOR STRESS PERIOD    9   TIME STEP   30



 STREAM LISTING     PERIOD      9   STEP       30

 LAYER ROW COL. STREAM  RCH.  FLOW INTO     FLOW TO   FLOW OUT OF   OVRLND.     DIRECT     STREAM       STREAM     STREAM     STREAM   STREAMBED  STREAMBED
                SEG.NO.  NO.  STRM. RCH.    AQUIFER    STRM. RCH.    RUNOFF     PRECIP       ET          HEAD       DEPTH      WIDTH   CONDCTNC.   GRADIENT

   1    1    1     1     1    6.1000E+01  3.7546E-01   6.0624E+01  0.000E+00  0.000E+00  0.000E+00  1.09459E+03  1.538E+00  1.839E+01  8.274E-02  1.513E+00
   1    2    2     1     2    6.0624E+01  5.8146E-01   6.0043E+01  0.000E+00  0.000E+00  0.000E+00  1.08959E+03  1.532E+00  1.833E+01  1.283E-01  1.511E+00
   1    3    3     1     3    6.0043E+01  4.9588E-01   5.9547E+01  0.000E+00  0.000E+00  0.000E+00  1.08394E+03  1.525E+00  1.826E+01  1.096E-01  1.508E+00
   1    3    4     1     4    5.9547E+01  4.5664E-01   5.9090E+01  0.000E+00  0.000E+00  0.000E+00  1.07893E+03  1.519E+00  1.821E+01  1.010E-01  1.506E+00
   1    4    5     2     1    5.7090E+01  3.8827E-01   5.6702E+01  0.000E+00  0.000E+00  0.000E+00  1.07391E+03  1.978E+00  1.200E+01  7.800E-02  1.659E+00
   1    5    6     2     2    5.6702E+01  2.9824E-01   5.6404E+01  0.000E+00  0.000E+00  0.000E+00  1.06848E+03  1.971E+00  1.200E+01  6.000E-02  1.657E+00
   1    6    6     2     3    5.6404E+01  2.9787E-01   5.6106E+01  0.000E+00  0.000E+00  0.000E+00  1.06376E+03  1.964E+00  1.200E+01  6.000E-02  1.655E+00
   1    7    6     2     4    5.6106E+01  2.9749E-01   5.5808E+01  0.000E+00  0.000E+00  0.000E+00  1.05903E+03  1.958E+00  1.200E+01  6.000E-02  1.653E+00
   1    8    6     2     5    5.5808E+01  2.9712E-01   5.5511E+01  0.000E+00  0.000E+00  0.000E+00  1.05431E+03  1.952E+00  1.200E+01  6.000E-02  1.651E+00
   1    3    5     3     1    2.0000E+00  2.8252E-01   1.7175E+00  0.000E+00  0.000E+00  0.000E+00  1.07555E+03  1.909E+00  9.636E+00  7.227E-02  1.955E+00
   1    3    6     3     2    1.7175E+00  2.4905E-01   1.4684E+00  0.000E+00  0.000E+00  0.000E+00  1.07264E+03  1.727E+00  8.909E+00  6.682E-02  1.864E+00
   1    3    7     3     3    1.4684E+00  1.9718E-01   1.2712E+00  0.000E+00  0.000E+00  0.000E+00  1.06987E+03  1.555E+00  8.218E+00  5.547E-02  1.777E+00
   1    4    8     3     4    1.2712E+00  2.2567E-01   1.0456E+00  0.000E+00  0.000E+00  0.000E+00  1.06682E+03  1.364E+00  7.455E+00  6.709E-02  1.682E+00
   1    5    8     3     5    1.0456E+00  1.5790E-01   8.8768E-01  0.000E+00  0.000E+00  0.000E+00  1.06362E+03  1.164E+00  6.655E+00  4.991E-02  1.582E+00
   1    6    8     3     6    8.8768E-01  5.5980E-02   8.3170E-01  0.000E+00  0.000E+00  0.000E+00  1.06158E+03  1.036E+00  6.145E+00  1.844E-02  1.518E+00
   1    5   10     4     1    1.0000E+01  9.0919E-02   9.9091E+00  0.000E+00  0.000E+00  0.000E+00  1.07836E+03  6.368E-01  1.000E+01  2.500E-02  1.212E+00
   1    5    9     4     2    9.9091E+00  1.8158E-01   9.7275E+00  0.000E+00  0.000E+00  0.000E+00  1.07154E+03  6.315E-01  1.000E+01  5.000E-02  1.211E+00
   1    6    8     4     3    9.7275E+00  1.2689E-01   9.6006E+00  0.000E+00  0.000E+00  0.000E+00  1.06381E+03  6.256E-01  1.000E+01  3.500E-02  1.209E+00
   1    6    8     5     1    1.0432E+01  2.2686E-01   1.0205E+01  0.000E+00  0.000E+00  0.000E+00  1.05868E+03  6.790E-01  1.542E+01  6.166E-02  1.226E+00
   1    7    7     5     2    1.0205E+01  2.7894E-01   9.9265E+00  0.000E+00  0.000E+00  0.000E+00  1.05417E+03  6.732E-01  1.519E+01  7.594E-02  1.224E+00
   1    8    7     5     3    9.9265E+00  1.9221E-01   9.7343E+00  0.000E+00  0.000E+00  0.000E+00  1.04992E+03  6.676E-01  1.497E+01  5.241E-02  1.223E+00
   1    8    6     5     4    9.7343E+00  1.3577E-01   9.5985E+00  0.000E+00  0.000E+00  0.000E+00  1.04691E+03  6.637E-01  1.482E+01  3.706E-02  1.221E+00
   1    9    6     6     1    6.5110E+01  3.0992E-01   6.4800E+01  0.000E+00  0.000E+00  0.000E+00  1.04489E+03  2.165E+00  1.200E+01  6.000E-02  1.722E+00
   1   10    7     6     2    6.4800E+01  3.0955E-01   6.4490E+01  0.000E+00  0.000E+00  0.000E+00  1.04034E+03  2.159E+00  1.200E+01  6.000E-02  1.720E+00
   1   11    7     6     3    6.4490E+01  3.0918E-01   6.4181E+01  0.000E+00  0.000E+00  0.000E+00  1.03579E+03  2.153E+00  1.200E+01  6.000E-02  1.718E+00
   1   12    7     6     4    6.4181E+01  3.0881E-01   6.3872E+01  0.000E+00  0.000E+00  0.000E+00  1.03124E+03  2.147E+00  1.200E+01  6.000E-02  1.716E+00
   1   13    7     6     5    6.3872E+01  1.9338E-02   6.3853E+01  0.000E+00  0.000E+00  0.000E+00  1.02805E+03  2.143E+00  1.200E+01  2.400E-02  2.686E-01
   1   14    9     7     1    1.5000E+02  1.3312E+00   1.4867E+02  0.000E+00  0.000E+00  0.000E+00  1.03987E+03  2.288E+00  5.529E+01  5.593E-01  7.934E-01
   1   13    8     7     2    1.4867E+02  1.7954E+00   1.4687E+02  0.000E+00  0.000E+00  0.000E+00  1.03478E+03  2.279E+00  5.526E+01  6.148E-01  9.735E-01
   1   13    7     7     3    1.4687E+02  1.3646E+00   1.4551E+02  0.000E+00  0.000E+00  0.000E+00  1.02969E+03  2.271E+00  5.522E+01  5.585E-01  8.145E-01
   1   13    6     8     1    2.0936E+02  9.6425E-01   2.0840E+02  0.000E+00  0.000E+00  0.000E+00  1.02506E+03  3.189E+00  4.624E+01  4.712E-01  6.821E-01
   1   13    5     8     2    2.0840E+02  1.7020E-01   2.0823E+02  0.000E+00  0.000E+00  0.000E+00  1.01881E+03  3.186E+00  4.620E+01  4.708E-01  1.205E-01
   1   13    4     8     3    2.0823E+02 -2.1832E+00   2.1041E+02  0.000E+00  0.000E+00  0.000E+00  1.01257E+03  3.192E+00  4.628E+01  4.716E+00 -1.543E-01
   1   13    3     8     4    2.1041E+02 -3.3094E+00   2.1372E+02  0.000E+00  0.000E+00  0.000E+00  1.00633E+03  3.207E+00  4.651E+01  4.739E+00 -2.328E-01
   1   13    2     8     5    2.1372E+02 -2.5495E+00   2.1627E+02  0.000E+00  0.000E+00  0.000E+00  1.00010E+03  3.224E+00  4.675E+01  4.764E+00 -1.784E-01
   1   13    1     8     6    2.1627E+02 -2.0051E+00   2.1827E+02  0.000E+00  0.000E+00  0.000E+00  9.95112E+02  3.237E+00  4.693E+01  2.870E+00 -2.329E-01





UNSATURATED ZONE PACKAGE VOLUMETRIC BUDGET FOR  TIME STEP    30 STRESS PERIOD    9
  ------------------------------------------------------------------------------



     CUMULATIVE VOLUMES      L**3       RATES FOR THIS TIME STEP      L**3/T
     ------------------                 ------------------------

           IN:                                      IN:
           ---                                      ---
        INFILTRATION =   423444917.0237          INFILTRATION =          49.5675

          OUT:                                     OUT:
          ----                                     ----
              UZF ET =   385438052.9511                UZF ET =          49.5675
        UZF RECHARGE =       73224.0000          UZF RECHARGE =       0.0000E+00

            IN - OUT =    37933640.0726              IN - OUT =       0.0000E+00

          STORAGE:                                 STORAGE:
          --------                                 --------
      STORAGE CHANGE =    37933640.6194        STORAGE CHANGE =       7.7285E-13

 PERCENT DISCREPANCY IS DIFFERENCE BETWEEN IN-OUT MINUS CHANGE IN STORAGE
 DIVIDED BY THE AVERAGE OF IN AND OUT TIMES 100

 PERCENT DISCREPANCY =           0.00     PERCENT DISCREPANCY =           0.00






1
  VOLUMETRIC BUDGET FOR AGRICULTURAL FIELDS AT  END OF TIME STEP   30, STRESS PERIOD   9
  ------------------------------------------------------------------------------

     CUMULATIVE VOLUMES      L**3       RATES FOR THIS TIME STEP      L**3/T
     ------------------                 ------------------------

           IN:                                      IN:
           ---                                      ---
               AG WELLS  =   405540032.0000                 AG WELLS  =          48.7200
      DIVERSION SEGMENTS =           0.0000        DIVERSION SEGMENTS =           0.0000
       IRRIGATION PONDS  =           0.0000         IRRIGATION PONDS  =           0.0000
           GW IRRIGATION =           0.0000             GW IRRIGATION =           0.0000
           SW IRRIGATION =           0.0000             SW IRRIGATION =           0.0000
        SYSTEM LOSSES GW =           0.0000          SYSTEM LOSSES GW =           0.0000
        SYSTEM LOSSES SW =           0.0000          SYSTEM LOSSES SW =           0.0000

                TOTAL IN =   405540032.0000                  TOTAL IN =          48.7200

          OUT:                                     OUT:
          ----                                     ----
               AG WELLS  =           0.0000                 AG WELLS  =           0.0000
      DIVERSION SEGMENTS =           0.0000        DIVERSION SEGMENTS =           0.0000
       IRRIGATION PONDS  =           0.0000         IRRIGATION PONDS  =           0.0000
           GW IRRIGATION =   405540032.0000             GW IRRIGATION =          48.7200
           SW IRRIGATION =           0.0000             SW IRRIGATION =           0.0000
        SYSTEM LOSSES GW =           0.0000          SYSTEM LOSSES GW =           0.0000
        SYSTEM LOSSES SW =           0.0000          SYSTEM LOSSES SW =           0.0000

               TOTAL OUT =   405540032.0000                 TOTAL OUT =          48.7200

                IN - OUT =           0.0000                  IN - OUT =           0.0000

     PERCENT DISCREPANCY =           0.00         PERCENT DISCREPANCY =           0.00



1
  VOLUMETRIC BUDGET FOR ENTIRE MODEL AT END OF TIME STEP   30, STRESS PERIOD   9
  ------------------------------------------------------------------------------

     CUMULATIVE VOLUMES      L**3       RATES FOR THIS TIME STEP      L**3/T
     ------------------                 ------------------------

           IN:                                      IN:
           ---                                      ---
             STORAGE     =   407793984.0000               STORAGE     =          47.7602
       CONSTANT HEAD     =           0.0000         CONSTANT HEAD     =           0.0000
     HEAD DEP BOUNDS     =     6030661.5000       HEAD DEP BOUNDS     =           0.2854
      STREAM LEAKAGE     =   270659584.0000        STREAM LEAKAGE     =          12.7724
        UZF RECHARGE     =       73223.9531          UZF RECHARGE     =           0.0000
               GW ET     =           0.0000                 GW ET     =           0.0000
     SURFACE LEAKAGE     =           0.0000       SURFACE LEAKAGE     =           0.0000
           AG WELLS      =           0.0000             AG WELLS      =           0.0000

                TOTAL IN =   684557440.0000                  TOTAL IN =          60.8181

          OUT:                                     OUT:
          ----                                     ----
             STORAGE     =    47441764.0000               STORAGE     =           0.7735
       CONSTANT HEAD     =           0.0000         CONSTANT HEAD     =           0.0000
     HEAD DEP BOUNDS     =     6242938.5000       HEAD DEP BOUNDS     =           0.2968
      STREAM LEAKAGE     =   212316464.0000        STREAM LEAKAGE     =          10.0473
        UZF RECHARGE     =           0.0000          UZF RECHARGE     =           0.0000
               GW ET     =    13019618.0000                 GW ET     =           0.9805
     SURFACE LEAKAGE     =           0.0000       SURFACE LEAKAGE     =           0.0000
           AG WELLS      =   405540032.0000             AG WELLS      =          48.7200

               TOTAL OUT =   684560832.0000                 TOTAL OUT =          60.8180

                IN - OUT =       -3392.0000                  IN - OUT =       3.0518E-05

     PERCENT DISCREPANCY =          -0.00         PERCENT DISCREPANCY =           0.00






         TIME SUMMARY AT END OF TIME STEP   30 IN STRESS PERIOD    9
                    SECONDS     MINUTES      HOURS       DAYS        YEARS
                    -----------------------------------------------------------
   TIME STEP LENGTH  87667.      1461.1      24.352      1.0147     2.77799E-03
 STRESS PERIOD TIME 2.63000E+06  43833.      730.56      30.440     8.33397E-02
         TOTAL TIME 2.11264E+07 3.52107E+05  5868.4      244.52     0.66945    
1
1
                            STRESS PERIOD NO.   10, LENGTH =   2630000.    
                            -----------------------------------------------

                              NUMBER OF TIME STEPS =    30

                               MULTIPLIER FOR DELT =     1.000

                            INITIAL TIME STEP SIZE =   87666.66    

 REUSING NON-PARAMETER GHB CELLS FROM LAST STRESS PERIOD

      2 GHB CELLS

 REUSING STREAM SEGMENT DATA FROM LAST STRESS PERIOD



            AREAL INFILTRATION RATE
 READING ON UNIT   19 WITH FORMAT: (FREE)              

            1           2           3           4           5           6           7           8           9          10
 ........................................................................................................................
   1   1.0000E-10  2.0000E-10   0.000       0.000       0.000       0.000       0.000       0.000       0.000       0.000    
   2   2.0000E-10  1.0000E-10  2.0000E-10   0.000       0.000      8.0000E-10  8.0000E-10  5.0000E-10   0.000       0.000    
   3    0.000      5.0000E-10  1.0000E-10  1.0000E-10  8.0000E-10  8.0000E-10  5.0000E-10  5.0000E-10   0.000       0.000    
   4   8.0000E-10  5.0000E-10  1.0000E-10  1.0000E-10  1.0000E-10  1.0000E-10  1.0000E-10  1.0000E-10  2.0000E-10   0.000    
   5   8.0000E-10  5.0000E-10  1.0000E-10  1.0000E-10  1.0000E-10  1.0000E-10  1.0000E-10  1.0000E-10  1.0000E-10  1.0000E-10
   6   8.0000E-10  5.0000E-10  5.0000E-10  2.0000E-10  2.0000E-10  1.0000E-10  1.0000E-10  1.0000E-10  1.0000E-10  5.0000E-10
   7   8.0000E-10  5.0000E-10  5.0000E-10  2.0000E-10  2.0000E-10  1.0000E-10  1.0000E-10  2.0000E-10  2.0000E-10   0.000    
   8    0.000      5.0000E-10  5.0000E-10  2.0000E-10  2.0000E-10  1.0000E-10  1.0000E-10  2.0000E-10  5.0000E-10   0.000    
   9    0.000      5.0000E-10  5.0000E-10  2.0000E-10  2.0000E-10  1.0000E-10  1.0000E-10  2.0000E-10  5.0000E-10   0.000    
  10    0.000      5.0000E-10  5.0000E-10  2.0000E-10  2.0000E-10  1.0000E-10  1.0000E-10  2.0000E-10  5.0000E-10  8.0000E-10
  11    0.000      1.0000E-10  1.0000E-10  1.0000E-10  1.0000E-10  1.0000E-10  1.0000E-10  2.0000E-10  5.0000E-10   0.000    
  12   1.0000E-10  1.0000E-10  1.0000E-10  1.0000E-10  1.0000E-10  1.0000E-10  1.0000E-10  1.0000E-10  2.0000E-10   0.000    
  13   1.0000E-10  1.0000E-10  2.0000E-10  2.0000E-10  2.0000E-10  2.0000E-10  2.0000E-10  1.0000E-10  1.0000E-10   0.000    
  14    0.000      2.0000E-10  5.0000E-10  5.0000E-10  5.0000E-10  5.0000E-10  5.0000E-10  2.0000E-10  1.0000E-10   0.000    
  15    0.000       0.000      8.0000E-10  8.0000E-10  8.0000E-10  8.0000E-10   0.000       0.000       0.000       0.000    

                  ET RATE =  7.500000E-08

 USING ET EXTINCTION DEPTH FROM PREVIOUS STRESS PERIOD. CURRENT PERIOD IS:      10

 USING EXTINCTION WATER CONTENT FROM PREVIOUS STRESS PERIOD. CURRENT PERIOD IS:      10

 USING AIR ENTRY PRESSURE FROM PREVIOUS STRESS PERIOD. CURRENT PERIOD IS:      10

 USING ROOT PRESSURE HEAD FROM PREVIOUS STRESS PERIOD. CURRENT PERIOD IS:      10

 USING ROOT ACTIVITY FROM PREVIOUS STRESS PERIOD. CURRENT PERIOD IS:      10

 PROCESSING AG STRESS PERIOD DATA

 READING AG STRESS PERIOD DATA

 READING IRRIGATION WELL

 NO IRRPOND OR REUSING IRRPOND DATA FROM LAST STRESS PERIOD

 END PROCESSING AG STRESS PERIOD DATA OPTIONS
 
 SOLVING FOR HEAD 
                                                   Max.-Head-Change                         Max.-Flux-Residual
  Residual-Control   Outer-Iter.   Inner-Iter.     Column Row Layer    Maximum-Head-Change  Column Row Layer    Maximum-Flux-Residual          L2-NORM 
          0                 1           2             5    8     1       0.7252383188E-01       5    8    1         0.3950491232E+01      0.1079427714E+02
          0                 2           2             5    8     1      -0.7054451806E-02       5    8    1        -0.3950394406E+00      0.1079378973E+01
          0                 3           2             5    8     1       0.4803833997E-03       5    8    1         0.2765286553E-01      0.7555494823E-01
          0                 4           1             5    8     1      -0.1911489902E-04       5    8    1        -0.1131003337E-02      0.3090126067E-02

    ------------------------------------------------
       NWT REQUIRED            4 OUTER ITERATIONS 
       AND A TOTAL OF          7 INNER ITERATIONS.
    ------------------------------------------------

 NO OUTPUT CONTROL FOR STRESS PERIOD   10   TIME STEP    1
 
 SOLVING FOR HEAD 
                                                   Max.-Head-Change                         Max.-Flux-Residual
  Residual-Control   Outer-Iter.   Inner-Iter.     Column Row Layer    Maximum-Head-Change  Column Row Layer    Maximum-Flux-Residual          L2-NORM 
          0                 1           2             5    6     1       0.1043555207E+00       5    8    1         0.5643750473E+01      0.1446071335E+02
          0                 2           2             5    7     1      -0.4418994419E-01       5    8    1        -0.2427767152E+01      0.5909341715E+01
          0                 3           2             5    7     1       0.3008911730E-02       5    8    1         0.1699294913E+00      0.4136188942E+00
          0                 4           2             5    7     1      -0.1197274364E-03       5    8    1        -0.6950126328E-02      0.1691702985E-01
          0                 5           1             5    7     1       0.1476292472E-05       5    8    1         0.8807953873E-04      0.2143922862E-03

    ------------------------------------------------
       NWT REQUIRED            5 OUTER ITERATIONS 
       AND A TOTAL OF          9 INNER ITERATIONS.
    ------------------------------------------------

 NO OUTPUT CONTROL FOR STRESS PERIOD   10   TIME STEP    2
 
 SOLVING FOR HEAD 
                                                   Max.-Head-Change                         Max.-Flux-Residual
  Residual-Control   Outer-Iter.   Inner-Iter.     Column Row Layer    Maximum-Head-Change  Column Row Layer    Maximum-Flux-Residual          L2-NORM 
          0                 1           2             5    6     1       0.1014068881E+00       5    6    1         0.5476086461E+01      0.1414813730E+02
          0                 2           2             5    7     1      -0.4416666211E-01       5    6    1        -0.2417583876E+01      0.5898589127E+01
          0                 3           2             5    7     1       0.3007323672E-02       5    6    1         0.1692165349E+00      0.4128658721E+00
          0                 4           2             5    7     1      -0.1196642486E-03       5    6    1        -0.6920966402E-02      0.1688622732E-01
          0                 5           1             5    7     1       0.1475513633E-05       5    6    1         0.8770996828E-04      0.2140013636E-03

    ------------------------------------------------
       NWT REQUIRED            5 OUTER ITERATIONS 
       AND A TOTAL OF          9 INNER ITERATIONS.
    ------------------------------------------------

 NO OUTPUT CONTROL FOR STRESS PERIOD   10   TIME STEP    3
 
 SOLVING FOR HEAD 
                                                   Max.-Head-Change                         Max.-Flux-Residual
  Residual-Control   Outer-Iter.   Inner-Iter.     Column Row Layer    Maximum-Head-Change  Column Row Layer    Maximum-Flux-Residual          L2-NORM 
          0                 1           2             5    6     1       0.9862764696E-01       5    6    1         0.5323016215E+01      0.1385172693E+02
          0                 2           2             5    7     1      -0.4402441223E-01       5    6    1        -0.2402277443E+01      0.5873008737E+01
          0                 3           2             5    7     1       0.2997636576E-02       5    6    1         0.1681450797E+00      0.4110752030E+00
          0                 4           2             5    7     1      -0.1192787917E-03       5    6    1        -0.6877143849E-02      0.1681298950E-01
          0                 5           1             5    7     1       0.1470760395E-05       5    6    1         0.8715460717E-04      0.2130742481E-03

    ------------------------------------------------
       NWT REQUIRED            5 OUTER ITERATIONS 
       AND A TOTAL OF          9 INNER ITERATIONS.
    ------------------------------------------------

 NO OUTPUT CONTROL FOR STRESS PERIOD   10   TIME STEP    4
 
 SOLVING FOR HEAD 
                                                   Max.-Head-Change                         Max.-Flux-Residual
  Residual-Control   Outer-Iter.   Inner-Iter.     Column Row Layer    Maximum-Head-Change  Column Row Layer    Maximum-Flux-Residual          L2-NORM 
          0                 1           2             5    7     1       0.9661293483E-01       5    6    1         0.5178585256E+01      0.1356997441E+02
          0                 2           2             4    7     1      -0.4394823769E-01       5    6    1        -0.2387834896E+01      0.5848534997E+01
          0                 3           2             4    7     1       0.2992445097E-02       5    6    1         0.1671340967E+00      0.4093619978E+00
          0                 4           2             4    7     1      -0.1190722254E-03       5    6    1        -0.6835794598E-02      0.1674420703E-01
          0                 5           1             4   13     1      -0.3292792699E-05       4   13    1        -0.2200831441E-03      0.3057721897E-03

    ------------------------------------------------
       NWT REQUIRED            5 OUTER ITERATIONS 
       AND A TOTAL OF          9 INNER ITERATIONS.
    ------------------------------------------------

 NO OUTPUT CONTROL FOR STRESS PERIOD   10   TIME STEP    5
 
 SOLVING FOR HEAD 
                                                   Max.-Head-Change                         Max.-Flux-Residual
  Residual-Control   Outer-Iter.   Inner-Iter.     Column Row Layer    Maximum-Head-Change  Column Row Layer    Maximum-Flux-Residual          L2-NORM 
          0                 1           2             5    7     1       0.9520111714E-01       5    7    1         0.5048481859E+01      0.1330183981E+02
          0                 2           2             4    7     1      -0.4391202183E-01       5    7    1        -0.2374830573E+01      0.5825099143E+01
          0                 3           2             4    7     1       0.2989978445E-02       5    7    1         0.1662234696E+00      0.4077214595E+00
          0                 4           2             4    7     1      -0.1189740775E-03       5    7    1        -0.6798551412E-02      0.1667582358E-01
          0                 5           1             4    7     1       0.1467001738E-05       5    7    1         0.8615861043E-04      0.2113435924E-03

    ------------------------------------------------
       NWT REQUIRED            5 OUTER ITERATIONS 
       AND A TOTAL OF          9 INNER ITERATIONS.
    ------------------------------------------------

 NO OUTPUT CONTROL FOR STRESS PERIOD   10   TIME STEP    6
 
 SOLVING FOR HEAD 
                                                   Max.-Head-Change                         Max.-Flux-Residual
  Residual-Control   Outer-Iter.   Inner-Iter.     Column Row Layer    Maximum-Head-Change  Column Row Layer    Maximum-Flux-Residual          L2-NORM 
          0                 1           2             5    7     1       0.9381660847E-01       5    7    1         0.4975108318E+01      0.1304637793E+02
          0                 2           2             4    7     1      -0.4387188384E-01       5    7    1        -0.2367493838E+01      0.5802639458E+01
          0                 3           2             4    7     1       0.2987244750E-02       5    7    1         0.1657098786E+00      0.4061492519E+00
          0                 4           2             4    7     1      -0.1188653035E-03       5    7    1        -0.6777545595E-02      0.1661152124E-01
          0                 5           1             4    7     1       0.1465660696E-05       5    7    1         0.8589238723E-04      0.2105214772E-03

    ------------------------------------------------
       NWT REQUIRED            5 OUTER ITERATIONS 
       AND A TOTAL OF          9 INNER ITERATIONS.
    ------------------------------------------------

 NO OUTPUT CONTROL FOR STRESS PERIOD   10   TIME STEP    7
 
 SOLVING FOR HEAD 
                                                   Max.-Head-Change                         Max.-Flux-Residual
  Residual-Control   Outer-Iter.   Inner-Iter.     Column Row Layer    Maximum-Head-Change  Column Row Layer    Maximum-Flux-Residual          L2-NORM 
          0                 1           2             5    7     1       0.9246017896E-01       5    7    1         0.4903150861E+01      0.1280272162E+02
          0                 2           2             4    7     1      -0.4382816320E-01       5    7    1        -0.2360298639E+01      0.5781098022E+01
          0                 3           2             4    7     1       0.2984267125E-02       5    7    1         0.1652061971E+00      0.4046413199E+00
          0                 4           2             4    7     1      -0.1187468229E-03       5    7    1        -0.6756945069E-02      0.1654985338E-01
          0                 5           1             4    7     1       0.1464199798E-05       5    7    1         0.8563132496E-04      0.2097787798E-03

    ------------------------------------------------
       NWT REQUIRED            5 OUTER ITERATIONS 
       AND A TOTAL OF          9 INNER ITERATIONS.
    ------------------------------------------------

 NO OUTPUT CONTROL FOR STRESS PERIOD   10   TIME STEP    8
 
 SOLVING FOR HEAD 
                                                   Max.-Head-Change                         Max.-Flux-Residual
  Residual-Control   Outer-Iter.   Inner-Iter.     Column Row Layer    Maximum-Head-Change  Column Row Layer    Maximum-Flux-Residual          L2-NORM 
          0                 1           2             4    7     1       0.9186403160E-01       5    7    1         0.4832657561E+01      0.1257007935E+02
          0                 2           2             4    7     1      -0.4378117967E-01       5    7    1        -0.2353249791E+01      0.5760422306E+01
          0                 3           2             4    7     1       0.2981067344E-02       5    7    1         0.1647127620E+00      0.4031939923E+00
          0                 4           2             4    7     1      -0.1186195027E-03       5    7    1        -0.6736763632E-02      0.1649065602E-01
          0                 5           1             4    7     1       0.1462629798E-05       5    7    1         0.8537555959E-04      0.2089902543E-03

    ------------------------------------------------
       NWT REQUIRED            5 OUTER ITERATIONS 
       AND A TOTAL OF          9 INNER ITERATIONS.
    ------------------------------------------------

 NO OUTPUT CONTROL FOR STRESS PERIOD   10   TIME STEP    9
 
 SOLVING FOR HEAD 
                                                   Max.-Head-Change                         Max.-Flux-Residual
  Residual-Control   Outer-Iter.   Inner-Iter.     Column Row Layer    Maximum-Head-Change  Column Row Layer    Maximum-Flux-Residual          L2-NORM 
          0                 1           2             5    8     1       0.1254940994E+00       5    8    1         0.6816649387E+01      0.1335717993E+02
          0                 2           2             5    8     1      -0.4615997677E-01       5    8    1        -0.2551305169E+01      0.5836695429E+01
          0                 3           2             5    8     1       0.3140800377E-02       5    8    1         0.1784445929E+00      0.4084755323E+00
          0                 4           2             5    8     1      -0.1248260869E-03       5    8    1        -0.7289442803E-02      0.1670276183E-01
          0                 5           1             5    8     1       0.1533384082E-05       5    8    1         0.9202378988E-04      0.2115282313E-03

    ------------------------------------------------
       NWT REQUIRED            5 OUTER ITERATIONS 
       AND A TOTAL OF          9 INNER ITERATIONS.
    ------------------------------------------------

 NO OUTPUT CONTROL FOR STRESS PERIOD   10   TIME STEP   10
 
 SOLVING FOR HEAD 
                                                   Max.-Head-Change                         Max.-Flux-Residual
  Residual-Control   Outer-Iter.   Inner-Iter.     Column Row Layer    Maximum-Head-Change  Column Row Layer    Maximum-Flux-Residual          L2-NORM 
          0                 1           2             5    8     1       0.1232951032E+00       5    8    1         0.6693720701E+01      0.1315181414E+02
          0                 2           2             5    8     1      -0.4594613496E-01       5    8    1        -0.2539018490E+01      0.5819279876E+01
          0                 3           2             5    8     1       0.3126249078E-02       5    8    1         0.1775851397E+00      0.4072567833E+00
          0                 4           2             5    8     1      -0.1242477697E-03       5    8    1        -0.7254332584E-02      0.1665293770E-01
          0                 5           1             5    8     1       0.1526279877E-05       5    8    1         0.9158048761E-04      0.2109142358E-03

    ------------------------------------------------
       NWT REQUIRED            5 OUTER ITERATIONS 
       AND A TOTAL OF          9 INNER ITERATIONS.
    ------------------------------------------------

 NO OUTPUT CONTROL FOR STRESS PERIOD   10   TIME STEP   11
 
 SOLVING FOR HEAD 
                                                   Max.-Head-Change                         Max.-Flux-Residual
  Residual-Control   Outer-Iter.   Inner-Iter.     Column Row Layer    Maximum-Head-Change  Column Row Layer    Maximum-Flux-Residual          L2-NORM 
          0                 1           2             5    8     1       0.1191386903E+00       5    8    1         0.6462911422E+01      0.1289826394E+02
          0                 2           2             5    8     1      -0.4554197535E-01       5    8    1        -0.2515948047E+01      0.5797587834E+01
          0                 3           2             5    8     1       0.3098747778E-02       5    8    1         0.1759714083E+00      0.4057391217E+00
          0                 4           2             5    8     1      -0.1231547724E-03       5    8    1        -0.7188409054E-02      0.1659092357E-01
          0                 5           1             5    8     1       0.1512853330E-05       5    8    1         0.9074814125E-04      0.2101060652E-03

    ------------------------------------------------
       NWT REQUIRED            5 OUTER ITERATIONS 
       AND A TOTAL OF          9 INNER ITERATIONS.
    ------------------------------------------------

 NO OUTPUT CONTROL FOR STRESS PERIOD   10   TIME STEP   12
 
 SOLVING FOR HEAD 
                                                   Max.-Head-Change                         Max.-Flux-Residual
  Residual-Control   Outer-Iter.   Inner-Iter.     Column Row Layer    Maximum-Head-Change  Column Row Layer    Maximum-Flux-Residual          L2-NORM 
          0                 1           2             5    8     1       0.1152462572E+00       5    8    1         0.6246917502E+01      0.1265798474E+02
          0                 2           2             4    7     1      -0.4357702251E-01       4    7    1        -0.2340250232E+01      0.5546730140E+01
          0                 3           2             5    8     1      -0.8016906028E-02       5    8    1        -0.4597211074E+00      0.5868171522E+00
          0                 4           2             5    8     1       0.5456021909E-03       5    8    1         0.3203409046E-01      0.3541040012E-01
          0                 5           1             5    8     1      -0.2168924684E-04       5    8    1        -0.1303883393E-02      0.1319859194E-02

    ------------------------------------------------
       NWT REQUIRED            5 OUTER ITERATIONS 
       AND A TOTAL OF          9 INNER ITERATIONS.
    ------------------------------------------------

 NO OUTPUT CONTROL FOR STRESS PERIOD   10   TIME STEP   13
 
 SOLVING FOR HEAD 
                                                   Max.-Head-Change                         Max.-Flux-Residual
  Residual-Control   Outer-Iter.   Inner-Iter.     Column Row Layer    Maximum-Head-Change  Column Row Layer    Maximum-Flux-Residual          L2-NORM 
          0                 1           2             5    8     1       0.1115986927E+00       5    8    1         0.6044657978E+01      0.1242990451E+02
          0                 2           2             4    7     1      -0.4351459425E-01       4    7    1        -0.2337494311E+01      0.5227551314E+01
          0                 3           2             4    7     1       0.2961406775E-02       5    8    1        -0.1710781646E+00      0.4020541652E+00
          0                 4           2             5    8     1      -0.7834073221E-03       5    8    1        -0.4425433189E-01      0.4670937037E-01
          0                 5           1             5    8     1      -0.2094463974E-03       5    8    1        -0.1188579644E-01      0.1188693649E-01
          0                 6           1             5    8     1      -0.5599471063E-04       5    8    1        -0.3176959748E-02      0.3177002245E-02

    ------------------------------------------------
       NWT REQUIRED            6 OUTER ITERATIONS 
       AND A TOTAL OF         10 INNER ITERATIONS.
    ------------------------------------------------

 NO OUTPUT CONTROL FOR STRESS PERIOD   10   TIME STEP   14
 
 SOLVING FOR HEAD 
                                                   Max.-Head-Change                         Max.-Flux-Residual
  Residual-Control   Outer-Iter.   Inner-Iter.     Column Row Layer    Maximum-Head-Change  Column Row Layer    Maximum-Flux-Residual          L2-NORM 
          0                 1           2             5    8     1       0.1064667820E+00       5    8    1         0.5759289912E+01      0.1218225140E+02
          0                 2           2             4    7     1      -0.4347171094E-01       4    7    1        -0.2334747734E+01      0.5452487836E+01
          0                 3           2             4    7     1       0.2959991322E-02       4    7    1         0.1634174077E+00      0.3816115404E+00
          0                 4           2             4    7     1      -0.1177808345E-03       4    7    1        -0.6683784531E-02      0.1560610158E-01
          0                 5           1             4    7     1       0.1452287245E-05       4    7    1         0.8470414468E-04      0.1977058778E-03

    ------------------------------------------------
       NWT REQUIRED            5 OUTER ITERATIONS 
       AND A TOTAL OF          9 INNER ITERATIONS.
    ------------------------------------------------

 NO OUTPUT CONTROL FOR STRESS PERIOD   10   TIME STEP   15
 
 SOLVING FOR HEAD 
                                                   Max.-Head-Change                         Max.-Flux-Residual
  Residual-Control   Outer-Iter.   Inner-Iter.     Column Row Layer    Maximum-Head-Change  Column Row Layer    Maximum-Flux-Residual          L2-NORM 
          0                 1           2             5    8     1       0.1025747588E+00       5    8    1         0.5543412507E+01      0.1196472219E+02
          0                 2           2             5    8     1      -0.4393129582E-01       5    8    1        -0.2424040157E+01      0.5716501868E+01
          0                 3           2             5    8     1       0.2989148186E-02       5    8    1         0.1695426456E+00      0.4000662462E+00
          0                 4           2             5    8     1      -0.1187989041E-03       5    8    1        -0.6925783877E-02      0.1635912297E-01
          0                 5           1             5    8     1       0.1459345299E-05       5    8    1         0.8743229591E-04      0.2071774415E-03

    ------------------------------------------------
       NWT REQUIRED            5 OUTER ITERATIONS 
       AND A TOTAL OF          9 INNER ITERATIONS.
    ------------------------------------------------

 NO OUTPUT CONTROL FOR STRESS PERIOD   10   TIME STEP   16
 
 SOLVING FOR HEAD 
                                                   Max.-Head-Change                         Max.-Flux-Residual
  Residual-Control   Outer-Iter.   Inner-Iter.     Column Row Layer    Maximum-Head-Change  Column Row Layer    Maximum-Flux-Residual          L2-NORM 
          0                 1           2             5    8     1       0.9972983200E-01       5    8    1         0.5386189503E+01      0.1177140439E+02
          0                 2           2             5    8     1      -0.4365467527E-01       5    8    1        -0.2408325345E+01      0.5699151994E+01
          0                 3           2             5    8     1       0.2970325267E-02       5    8    1         0.1684434234E+00      0.3988522543E+00
          0                 4           2             5    8     1      -0.1180508163E-03       5    8    1        -0.6880879183E-02      0.1630950804E-01
          0                 5           1             5    8     1       0.1450155602E-05       5    8    1         0.8686533783E-04      0.2065509436E-03

    ------------------------------------------------
       NWT REQUIRED            5 OUTER ITERATIONS 
       AND A TOTAL OF          9 INNER ITERATIONS.
    ------------------------------------------------

 NO OUTPUT CONTROL FOR STRESS PERIOD   10   TIME STEP   17
 
 SOLVING FOR HEAD 
                                                   Max.-Head-Change                         Max.-Flux-Residual
  Residual-Control   Outer-Iter.   Inner-Iter.     Column Row Layer    Maximum-Head-Change  Column Row Layer    Maximum-Flux-Residual          L2-NORM 
          0                 1           2             5    8     1       0.9705271933E-01       5    8    1         0.5238348619E+01      0.1158654891E+02
          0                 2           2             5    8     1      -0.4339437342E-01       5    8    1        -0.2393548338E+01      0.5682463814E+01
          0                 3           2             5    8     1       0.2952612759E-02       5    8    1         0.1674097986E+00      0.3976845465E+00
          0                 4           2             4    7     1      -0.1173571041E-03       5    8    1        -0.6838654281E-02      0.1626178165E-01
          0                 5           1             4    7     1       0.1447061641E-05       5    8    1         0.8633221978E-04      0.2059481109E-03

    ------------------------------------------------
       NWT REQUIRED            5 OUTER ITERATIONS 
       AND A TOTAL OF          9 INNER ITERATIONS.
    ------------------------------------------------

 NO OUTPUT CONTROL FOR STRESS PERIOD   10   TIME STEP   18
 
 SOLVING FOR HEAD 
                                                   Max.-Head-Change                         Max.-Flux-Residual
  Residual-Control   Outer-Iter.   Inner-Iter.     Column Row Layer    Maximum-Head-Change  Column Row Layer    Maximum-Flux-Residual          L2-NORM 
          0                 1           2             5    8     1       0.9453189344E-01       5    8    1         0.5099239751E+01      0.1140958816E+02
          0                 2           2             4    7     1      -0.4325927512E-01       5    8    1        -0.2379644150E+01      0.5666401321E+01
          0                 3           2             4    7     1       0.2945525202E-02       5    8    1         0.1664372257E+00      0.3965606038E+00
          0                 4           2             4    7     1      -0.1172051960E-03       5    8    1        -0.6798923421E-02      0.1621584138E-01
          0                 5           1             4    7     1       0.1445188640E-05       5    8    1         0.8583060344E-04      0.2053686577E-03

    ------------------------------------------------
       NWT REQUIRED            5 OUTER ITERATIONS 
       AND A TOTAL OF          9 INNER ITERATIONS.
    ------------------------------------------------

 NO OUTPUT CONTROL FOR STRESS PERIOD   10   TIME STEP   19
 
 SOLVING FOR HEAD 
                                                   Max.-Head-Change                         Max.-Flux-Residual
  Residual-Control   Outer-Iter.   Inner-Iter.     Column Row Layer    Maximum-Head-Change  Column Row Layer    Maximum-Flux-Residual          L2-NORM 
          0                 1           2             4    8     1       0.1234171017E+00       4    8    1         0.6580397154E+01      0.1229052278E+02
          0                 2           2             4    7     1      -0.4307724238E-01       5    8    1        -0.2366541436E+01      0.5444665964E+01
          0                 3           2             4    8     1      -0.8800273829E-02       4    8    1        -0.4954386739E+00      0.6131239309E+00
          0                 4           2             4    8     1      -0.2403629498E-02       4    8    1        -0.1339118022E+00      0.1347433753E+00
          0                 5           1             4    8     1       0.1248103074E-04       4    8    1         0.7170374529E-03      0.7337997200E-03

    ------------------------------------------------
       NWT REQUIRED            5 OUTER ITERATIONS 
       AND A TOTAL OF          9 INNER ITERATIONS.
    ------------------------------------------------

 NO OUTPUT CONTROL FOR STRESS PERIOD   10   TIME STEP   20
 
 SOLVING FOR HEAD 
                                                   Max.-Head-Change                         Max.-Flux-Residual
  Residual-Control   Outer-Iter.   Inner-Iter.     Column Row Layer    Maximum-Head-Change  Column Row Layer    Maximum-Flux-Residual          L2-NORM 
          0                 1           2             4    8     1       0.1233282424E+00       5    7    1         0.6598662722E+01      0.1315357838E+02
          0                 2           2             4    7     1      -0.4261028706E-01       5    8    1        -0.2357413108E+01      0.4974268711E+01
          0                 3           2             5    7     1      -0.9220996158E-02       5    7    1        -0.5308801432E+00      0.6258612933E+00
          0                 4           2             5    7     1       0.6273754523E-03       5    7    1         0.3693872361E-01      0.4406087706E-01
          0                 5           1             4    8     1      -0.9789791887E-04       4    8    1        -0.5463415587E-02      0.5668770081E-02

    ------------------------------------------------
       NWT REQUIRED            5 OUTER ITERATIONS 
       AND A TOTAL OF          9 INNER ITERATIONS.
    ------------------------------------------------

 NO OUTPUT CONTROL FOR STRESS PERIOD   10   TIME STEP   21
 
 SOLVING FOR HEAD 
                                                   Max.-Head-Change                         Max.-Flux-Residual
  Residual-Control   Outer-Iter.   Inner-Iter.     Column Row Layer    Maximum-Head-Change  Column Row Layer    Maximum-Flux-Residual          L2-NORM 
          0                 1           2             5    7     1       0.1225579938E+00       5    7    1         0.6557228277E+01      0.1328377886E+02
          0                 2           2             4    7     1      -0.4273828872E-01       5    8    1        -0.2355147562E+01      0.4756162271E+01
          0                 3           2             4    8     1       0.2878869368E-02       5    8    1         0.1647179493E+00      0.3509329198E+00
          0                 4           2             5    7     1      -0.5462632895E-03       5    7    1        -0.3102724476E-01      0.3672586142E-01
          0                 5           2             5    7     1      -0.1459665455E-03       5    7    1        -0.8278651776E-02      0.8301866267E-02
          0                 6           1             5    7     1      -0.3900263117E-04       5    7    1        -0.2213859964E-02      0.2213891017E-02

    ------------------------------------------------
       NWT REQUIRED            6 OUTER ITERATIONS 
       AND A TOTAL OF         11 INNER ITERATIONS.
    ------------------------------------------------

 NO OUTPUT CONTROL FOR STRESS PERIOD   10   TIME STEP   22
 
 SOLVING FOR HEAD 
                                                   Max.-Head-Change                         Max.-Flux-Residual
  Residual-Control   Outer-Iter.   Inner-Iter.     Column Row Layer    Maximum-Head-Change  Column Row Layer    Maximum-Flux-Residual          L2-NORM 
          0                 1           2             5    7     1       0.1182605504E+00       5    7    1         0.6299838265E+01      0.1353501722E+02
          0                 2           2             4    8     1      -0.4569942440E-01       4    8    1        -0.2490435950E+01      0.5529135655E+01
          0                 3           2             4    8     1       0.3029621415E-02       4    8    1         0.1741846289E+00      0.3952523490E+00
          0                 4           2             5    8     1       0.1915131392E-03       5    8    1         0.1136874689E-01      0.1862372235E-01
          0                 5           1             5    8     1      -0.7613349002E-05       5    8    1        -0.4588998954E-03      0.4974171090E-03

    ------------------------------------------------
       NWT REQUIRED            5 OUTER ITERATIONS 
       AND A TOTAL OF          9 INNER ITERATIONS.
    ------------------------------------------------

 NO OUTPUT CONTROL FOR STRESS PERIOD   10   TIME STEP   23
 
 SOLVING FOR HEAD 
                                                   Max.-Head-Change                         Max.-Flux-Residual
  Residual-Control   Outer-Iter.   Inner-Iter.     Column Row Layer    Maximum-Head-Change  Column Row Layer    Maximum-Flux-Residual          L2-NORM 
          0                 1           2             5    7     1       0.1155723328E+00       5    7    1         0.6150699616E+01      0.1338106773E+02
          0                 2           2             5    7     1      -0.4539307676E-01       5    7    1        -0.2484740961E+01      0.5490661280E+01
          0                 3           2             5    8     1      -0.5465043315E-02       5    8    1        -0.3153656433E+00      0.4911714073E+00
          0                 4           2             5    8     1      -0.1461072173E-02       5    8    1        -0.8269051019E-01      0.8413313558E-01
          0                 5           1             5    8     1      -0.3906065786E-03       5    8    1        -0.2216543564E-01      0.2216599897E-01
          0                 6           1             5    8     1      -0.1044229678E-03       5    8    1        -0.5924822822E-02      0.5924898767E-02
          0                 7           1             5    8     1      -0.2791524101E-04       5    8    1        -0.1583867964E-02      0.1583890730E-02

    ------------------------------------------------
       NWT REQUIRED            7 OUTER ITERATIONS 
       AND A TOTAL OF         11 INNER ITERATIONS.
    ------------------------------------------------

 NO OUTPUT CONTROL FOR STRESS PERIOD   10   TIME STEP   24
 
 SOLVING FOR HEAD 
                                                   Max.-Head-Change                         Max.-Flux-Residual
  Residual-Control   Outer-Iter.   Inner-Iter.     Column Row Layer    Maximum-Head-Change  Column Row Layer    Maximum-Flux-Residual          L2-NORM 
          0                 1           2             5    7     1       0.1135898686E+00       5    7    1         0.6043999248E+01      0.1316674798E+02
          0                 2           2             5    7     1      -0.4509247436E-01       5    7    1        -0.2474076150E+01      0.5406249869E+01
          0                 3           2             5    8     1      -0.3332654076E-02       5    8    1        -0.1943451018E+00      0.4227011552E+00
          0                 4           2             5    8     1      -0.8909732834E-03       5    8    1        -0.5034261742E-01      0.5265018597E-01
          0                 5           1             5    8     1      -0.2381935917E-03       5    8    1        -0.1351767192E-01      0.1351867354E-01
          0                 6           1             5    8     1      -0.6367719965E-04       5    8    1        -0.3612965725E-02      0.3613014250E-02

    ------------------------------------------------
       NWT REQUIRED            6 OUTER ITERATIONS 
       AND A TOTAL OF         10 INNER ITERATIONS.
    ------------------------------------------------

 NO OUTPUT CONTROL FOR STRESS PERIOD   10   TIME STEP   25
 
 SOLVING FOR HEAD 
                                                   Max.-Head-Change                         Max.-Flux-Residual
  Residual-Control   Outer-Iter.   Inner-Iter.     Column Row Layer    Maximum-Head-Change  Column Row Layer    Maximum-Flux-Residual          L2-NORM 
          0                 1           2             4    7     1       0.1309402387E+00       4    7    1         0.6910121757E+01      0.1392837107E+02
          0                 2           2             4    7     1      -0.4757337288E-01       4    7    1        -0.2560644172E+01      0.5806442646E+01
          0                 3           2             4    7     1       0.3236865722E-02       4    7    1         0.1790937150E+00      0.4061522701E+00
          0                 4           2             4    7     1      -0.1286376872E-03       4    7    1        -0.7315720698E-02      0.1659379573E-01
          0                 5           1             4    7     1       0.1579958170E-05       4    7    1         0.9234591971E-04      0.2096222512E-03

    ------------------------------------------------
       NWT REQUIRED            5 OUTER ITERATIONS 
       AND A TOTAL OF          9 INNER ITERATIONS.
    ------------------------------------------------

 NO OUTPUT CONTROL FOR STRESS PERIOD   10   TIME STEP   26
 
 SOLVING FOR HEAD 
                                                   Max.-Head-Change                         Max.-Flux-Residual
  Residual-Control   Outer-Iter.   Inner-Iter.     Column Row Layer    Maximum-Head-Change  Column Row Layer    Maximum-Flux-Residual          L2-NORM 
          0                 1           2             4    7     1       0.1317673242E+00       4    7    1         0.6956789481E+01      0.1380533975E+02
          0                 2           2             5    7     1      -0.4492229708E-01       5    7    1        -0.2457364294E+01      0.5471464568E+01
          0                 3           2             4    7     1      -0.6504274768E-02       4    7    1        -0.3711236022E+00      0.5260538704E+00
          0                 4           2             4    7     1      -0.1769645722E-02       4    7    1        -0.9873818911E-01      0.9993701993E-01
          0                 5           1             4    7     1      -0.4814650895E-03       4    7    1        -0.2694451809E-01      0.2694480394E-01
          0                 6           1             4    7     1      -0.1309882154E-03       4    7    1        -0.7329489659E-02      0.7329588505E-02
          0                 7           1             4    7     1      -0.3563598711E-04       4    7    1        -0.1994017311E-02      0.1994041437E-02

    ------------------------------------------------
       NWT REQUIRED            7 OUTER ITERATIONS 
       AND A TOTAL OF         11 INNER ITERATIONS.
    ------------------------------------------------

 NO OUTPUT CONTROL FOR STRESS PERIOD   10   TIME STEP   27
 
 SOLVING FOR HEAD 
                                                   Max.-Head-Change                         Max.-Flux-Residual
  Residual-Control   Outer-Iter.   Inner-Iter.     Column Row Layer    Maximum-Head-Change  Column Row Layer    Maximum-Flux-Residual          L2-NORM 
          0                 1           2             4    7     1       0.1292877060E+00       4    7    1         0.6823087331E+01      0.1361303437E+02
          0                 2           2             5    7     1      -0.4469509042E-01       5    7    1        -0.2450964693E+01      0.5145312418E+01
          0                 3           2             4    8     1      -0.8106598249E-02       4    8    1        -0.4554928248E+00      0.5657757737E+00
          0                 4           2             4    8     1       0.5517061586E-03       4    8    1         0.3177497260E-01      0.3465899591E-01
          0                 5           1             4    8     1      -0.2193153490E-04       4    8    1        -0.1294580246E-02      0.1308070816E-02

    ------------------------------------------------
       NWT REQUIRED            5 OUTER ITERATIONS 
       AND A TOTAL OF          9 INNER ITERATIONS.
    ------------------------------------------------

 NO OUTPUT CONTROL FOR STRESS PERIOD   10   TIME STEP   28
 
 SOLVING FOR HEAD 
                                                   Max.-Head-Change                         Max.-Flux-Residual
  Residual-Control   Outer-Iter.   Inner-Iter.     Column Row Layer    Maximum-Head-Change  Column Row Layer    Maximum-Flux-Residual          L2-NORM 
          0                 1           2             4    7     1       0.1260695472E+00       4    7    1         0.6648634978E+01      0.1342041241E+02
          0                 2           2             4    7     1      -0.4658512142E-01       4    7    1        -0.2534507915E+01      0.5217285601E+01
          0                 3           2             5    7     1      -0.4249244227E-02       5    7    1        -0.2490076215E+00      0.4549604694E+00
          0                 4           2             4    8     1      -0.8826290755E-03       4    8    1        -0.4905950606E-01      0.5379761907E-01
          0                 5           2             4    8     1      -0.2410550905E-03       4    8    1        -0.1345023383E-01      0.1346894862E-01
          0                 6           1             4    8     1      -0.6583294366E-04       4    8    1        -0.3672629432E-02      0.3672678109E-02

    ------------------------------------------------
       NWT REQUIRED            6 OUTER ITERATIONS 
       AND A TOTAL OF         11 INNER ITERATIONS.
    ------------------------------------------------

 NO OUTPUT CONTROL FOR STRESS PERIOD   10   TIME STEP   29
 
 SOLVING FOR HEAD 
                                                   Max.-Head-Change                         Max.-Flux-Residual
  Residual-Control   Outer-Iter.   Inner-Iter.     Column Row Layer    Maximum-Head-Change  Column Row Layer    Maximum-Flux-Residual          L2-NORM 
          0                 1           2             4    7     1       0.1252906575E+00       4    7    1         0.6577151779E+01      0.1407027835E+02
          0                 2           2             4    7     1      -0.4637464617E-01       4    7    1        -0.2527356643E+01      0.5015970310E+01
          0                 3           2             5    7     1      -0.4335083138E-02       5    7    1        -0.2482468692E+00      0.4498710164E+00
          0                 4           2             5    7     1      -0.1158331730E-02       5    7    1        -0.6576401466E-01      0.6851174307E-01
          0                 5           2             5    7     1      -0.3094980699E-03       5    7    1        -0.1756266499E-01      0.1757339382E-01
          0                 6           1             5    7     1      -0.8269358488E-04       5    7    1        -0.4694137864E-02      0.4694202542E-02

    ------------------------------------------------
       NWT REQUIRED            6 OUTER ITERATIONS 
       AND A TOTAL OF         11 INNER ITERATIONS.
    ------------------------------------------------

 NO OUTPUT CONTROL FOR STRESS PERIOD   10   TIME STEP   30



 STREAM LISTING     PERIOD     10   STEP       30

 LAYER ROW COL. STREAM  RCH.  FLOW INTO     FLOW TO   FLOW OUT OF   OVRLND.     DIRECT     STREAM       STREAM     STREAM     STREAM   STREAMBED  STREAMBED
                SEG.NO.  NO.  STRM. RCH.    AQUIFER    STRM. RCH.    RUNOFF     PRECIP       ET          HEAD       DEPTH      WIDTH   CONDCTNC.   GRADIENT

   1    1    1     1     1    4.7000E+01  3.2684E-01   4.6673E+01  0.000E+00  0.000E+00  0.000E+00  1.09443E+03  1.380E+00  1.658E+01  7.462E-02  1.460E+00
   1    2    2     1     2    4.6673E+01  5.0637E-01   4.6166E+01  0.000E+00  0.000E+00  0.000E+00  1.08944E+03  1.377E+00  1.653E+01  1.157E-01  1.459E+00
   1    3    3     1     3    4.6166E+01  4.3205E-01   4.5734E+01  0.000E+00  0.000E+00  0.000E+00  1.08379E+03  1.374E+00  1.646E+01  9.878E-02  1.458E+00
   1    3    4     1     4    4.5734E+01  3.9802E-01   4.5336E+01  0.000E+00  0.000E+00  0.000E+00  1.07878E+03  1.371E+00  1.641E+01  9.105E-02  1.457E+00
   1    4    5     2     1    4.3336E+01  3.6469E-01   4.2972E+01  0.000E+00  0.000E+00  0.000E+00  1.07361E+03  1.676E+00  1.200E+01  7.800E-02  1.559E+00
   1    5    6     2     2    4.2972E+01  2.8008E-01   4.2692E+01  0.000E+00  0.000E+00  0.000E+00  1.06818E+03  1.668E+00  1.200E+01  6.000E-02  1.556E+00
   1    6    6     2     3    4.2692E+01  2.7969E-01   4.2412E+01  0.000E+00  0.000E+00  0.000E+00  1.06345E+03  1.661E+00  1.200E+01  6.000E-02  1.554E+00
   1    7    6     2     4    4.2412E+01  2.7930E-01   4.2133E+01  0.000E+00  0.000E+00  0.000E+00  1.05873E+03  1.655E+00  1.200E+01  6.000E-02  1.552E+00
   1    8    6     2     5    4.2133E+01  2.7890E-01   4.1854E+01  0.000E+00  0.000E+00  0.000E+00  1.05401E+03  1.648E+00  1.200E+01  6.000E-02  1.549E+00
   1    3    5     3     1    2.0000E+00  2.8252E-01   1.7175E+00  0.000E+00  0.000E+00  0.000E+00  1.07555E+03  1.909E+00  9.636E+00  7.227E-02  1.955E+00
   1    3    6     3     2    1.7175E+00  2.4905E-01   1.4684E+00  0.000E+00  0.000E+00  0.000E+00  1.07264E+03  1.727E+00  8.909E+00  6.682E-02  1.864E+00
   1    3    7     3     3    1.4684E+00  1.9718E-01   1.2712E+00  0.000E+00  0.000E+00  0.000E+00  1.06987E+03  1.555E+00  8.218E+00  5.547E-02  1.777E+00
   1    4    8     3     4    1.2712E+00  2.2567E-01   1.0456E+00  0.000E+00  0.000E+00  0.000E+00  1.06682E+03  1.364E+00  7.455E+00  6.709E-02  1.682E+00
   1    5    8     3     5    1.0456E+00  1.5790E-01   8.8768E-01  0.000E+00  0.000E+00  0.000E+00  1.06362E+03  1.164E+00  6.655E+00  4.991E-02  1.582E+00
   1    6    8     3     6    8.8768E-01  5.5980E-02   8.3170E-01  0.000E+00  0.000E+00  0.000E+00  1.06158E+03  1.036E+00  6.145E+00  1.844E-02  1.518E+00
   1    5   10     4     1    1.0000E+01  9.0919E-02   9.9091E+00  0.000E+00  0.000E+00  0.000E+00  1.07836E+03  6.368E-01  1.000E+01  2.500E-02  1.212E+00
   1    5    9     4     2    9.9091E+00  1.8158E-01   9.7275E+00  0.000E+00  0.000E+00  0.000E+00  1.07154E+03  6.315E-01  1.000E+01  5.000E-02  1.211E+00
   1    6    8     4     3    9.7275E+00  1.2689E-01   9.6006E+00  0.000E+00  0.000E+00  0.000E+00  1.06381E+03  6.256E-01  1.000E+01  3.500E-02  1.209E+00
   1    6    8     5     1    1.0432E+01  2.2686E-01   1.0205E+01  0.000E+00  0.000E+00  0.000E+00  1.05868E+03  6.790E-01  1.542E+01  6.166E-02  1.226E+00
   1    7    7     5     2    1.0205E+01  2.7894E-01   9.9265E+00  0.000E+00  0.000E+00  0.000E+00  1.05417E+03  6.732E-01  1.519E+01  7.594E-02  1.224E+00
   1    8    7     5     3    9.9265E+00  1.9221E-01   9.7343E+00  0.000E+00  0.000E+00  0.000E+00  1.04992E+03  6.676E-01  1.497E+01  5.241E-02  1.223E+00
   1    8    6     5     4    9.7343E+00  1.3577E-01   9.5985E+00  0.000E+00  0.000E+00  0.000E+00  1.04691E+03  6.637E-01  1.482E+01  3.706E-02  1.221E+00
   1    9    6     6     1    5.1452E+01  2.9278E-01   5.1159E+01  0.000E+00  0.000E+00  0.000E+00  1.04461E+03  1.880E+00  1.200E+01  6.000E-02  1.627E+00
   1   10    7     6     2    5.1159E+01  2.9239E-01   5.0867E+01  0.000E+00  0.000E+00  0.000E+00  1.04005E+03  1.873E+00  1.200E+01  6.000E-02  1.624E+00
   1   11    7     6     3    5.0867E+01  2.9200E-01   5.0575E+01  0.000E+00  0.000E+00  0.000E+00  1.03550E+03  1.867E+00  1.200E+01  6.000E-02  1.622E+00
   1   12    7     6     4    5.0575E+01  2.9162E-01   5.0283E+01  0.000E+00  0.000E+00  0.000E+00  1.03095E+03  1.860E+00  1.200E+01  6.000E-02  1.620E+00
   1   13    7     6     5    5.0283E+01  1.2618E-02   5.0271E+01  0.000E+00  0.000E+00  0.000E+00  1.02777E+03  1.857E+00  1.200E+01  2.400E-02  1.753E-01
   1   14    9     7     1    1.5000E+02  1.3308E+00   1.4867E+02  0.000E+00  0.000E+00  0.000E+00  1.03987E+03  2.288E+00  5.529E+01  5.593E-01  7.931E-01
   1   13    8     7     2    1.4867E+02  1.7940E+00   1.4688E+02  0.000E+00  0.000E+00  0.000E+00  1.03478E+03  2.279E+00  5.526E+01  6.148E-01  9.727E-01
   1   13    7     7     3    1.4688E+02  1.3683E+00   1.4551E+02  0.000E+00  0.000E+00  0.000E+00  1.02969E+03  2.271E+00  5.522E+01  5.585E-01  8.167E-01
   1   13    6     8     1    1.9578E+02  9.1827E-01   1.9486E+02  0.000E+00  0.000E+00  0.000E+00  1.02498E+03  3.110E+00  4.509E+01  4.595E-01  6.661E-01
   1   13    5     8     2    1.9486E+02  1.4273E-01   1.9472E+02  0.000E+00  0.000E+00  0.000E+00  1.01873E+03  3.107E+00  4.505E+01  4.591E-01  1.036E-01
   1   13    4     8     3    1.9472E+02 -2.4980E+00   1.9721E+02  0.000E+00  0.000E+00  0.000E+00  1.01249E+03  3.114E+00  4.515E+01  4.601E+00 -1.810E-01
   1   13    3     8     4    1.9721E+02 -3.6170E+00   2.0083E+02  0.000E+00  0.000E+00  0.000E+00  1.00626E+03  3.132E+00  4.541E+01  4.628E+00 -2.605E-01
   1   13    2     8     5    2.0083E+02 -2.5915E+00   2.0342E+02  0.000E+00  0.000E+00  0.000E+00  1.00003E+03  3.150E+00  4.568E+01  4.655E+00 -1.856E-01
   1   13    1     8     6    2.0342E+02 -2.0170E+00   2.0544E+02  0.000E+00  0.000E+00  0.000E+00  9.95039E+02  3.164E+00  4.587E+01  2.805E+00 -2.397E-01





UNSATURATED ZONE PACKAGE VOLUMETRIC BUDGET FOR  TIME STEP    30 STRESS PERIOD   10
  ------------------------------------------------------------------------------



     CUMULATIVE VOLUMES      L**3       RATES FOR THIS TIME STEP      L**3/T
     ------------------                 ------------------------

           IN:                                      IN:
           ---                                      ---
        INFILTRATION =   455181609.4001          INFILTRATION =          12.0675

          OUT:                                     OUT:
          ----                                     ----
              UZF ET =   417175577.8275                UZF ET =          12.0675
        UZF RECHARGE =    13384208.0625          UZF RECHARGE =          16.3668

            IN - OUT =    24621823.5101              IN - OUT =         -16.3668

          STORAGE:                                 STORAGE:
          --------                                 --------
      STORAGE CHANGE =    24621824.0224        STORAGE CHANGE =         -16.3668

 PERCENT DISCREPANCY IS DIFFERENCE BETWEEN IN-OUT MINUS CHANGE IN STORAGE
 DIVIDED BY THE AVERAGE OF IN AND OUT TIMES 100

 PERCENT DISCREPANCY =           0.00     PERCENT DISCREPANCY =           0.00






1
  VOLUMETRIC BUDGET FOR AGRICULTURAL FIELDS AT  END OF TIME STEP   30, STRESS PERIOD  10
  ------------------------------------------------------------------------------

     CUMULATIVE VOLUMES      L**3       RATES FOR THIS TIME STEP      L**3/T
     ------------------                 ------------------------

           IN:                                      IN:
           ---                                      ---
               AG WELLS  =   435047680.0000                 AG WELLS  =          11.2200
      DIVERSION SEGMENTS =           0.0000        DIVERSION SEGMENTS =           0.0000
       IRRIGATION PONDS  =           0.0000         IRRIGATION PONDS  =           0.0000
           GW IRRIGATION =           0.0000             GW IRRIGATION =           0.0000
           SW IRRIGATION =           0.0000             SW IRRIGATION =           0.0000
        SYSTEM LOSSES GW =           0.0000          SYSTEM LOSSES GW =           0.0000
        SYSTEM LOSSES SW =           0.0000          SYSTEM LOSSES SW =           0.0000

                TOTAL IN =   435047680.0000                  TOTAL IN =          11.2200

          OUT:                                     OUT:
          ----                                     ----
               AG WELLS  =           0.0000                 AG WELLS  =           0.0000
      DIVERSION SEGMENTS =           0.0000        DIVERSION SEGMENTS =           0.0000
       IRRIGATION PONDS  =           0.0000         IRRIGATION PONDS  =           0.0000
           GW IRRIGATION =   435047680.0000             GW IRRIGATION =          11.2200
           SW IRRIGATION =           0.0000             SW IRRIGATION =           0.0000
        SYSTEM LOSSES GW =           0.0000          SYSTEM LOSSES GW =           0.0000
        SYSTEM LOSSES SW =           0.0000          SYSTEM LOSSES SW =           0.0000

               TOTAL OUT =   435047680.0000                 TOTAL OUT =          11.2200

                IN - OUT =           0.0000                  IN - OUT =           0.0000

     PERCENT DISCREPANCY =           0.00         PERCENT DISCREPANCY =           0.00



1
  VOLUMETRIC BUDGET FOR ENTIRE MODEL AT END OF TIME STEP   30, STRESS PERIOD  10
  ------------------------------------------------------------------------------

     CUMULATIVE VOLUMES      L**3       RATES FOR THIS TIME STEP      L**3/T
     ------------------                 ------------------------

           IN:                                      IN:
           ---                                      ---
             STORAGE     =   472379040.0000               STORAGE     =          17.9897
       CONSTANT HEAD     =           0.0000         CONSTANT HEAD     =           0.0000
     HEAD DEP BOUNDS     =     6781340.0000       HEAD DEP BOUNDS     =           0.2854
      STREAM LEAKAGE     =   302964928.0000        STREAM LEAKAGE     =          12.2829
        UZF RECHARGE     =    13384208.0000          UZF RECHARGE     =          16.3668
               GW ET     =           0.0000                 GW ET     =           0.0000
     SURFACE LEAKAGE     =           0.0000       SURFACE LEAKAGE     =           0.0000
           AG WELLS      =           0.0000             AG WELLS      =           0.0000

                TOTAL IN =   795509504.0000                  TOTAL IN =          46.9249

          OUT:                                     OUT:
          ----                                     ----
             STORAGE     =    98898968.0000               STORAGE     =          24.4249
       CONSTANT HEAD     =           0.0000         CONSTANT HEAD     =           0.0000
     HEAD DEP BOUNDS     =     7020255.5000       HEAD DEP BOUNDS     =           0.2948
      STREAM LEAKAGE     =   240810864.0000        STREAM LEAKAGE     =          10.7235
        UZF RECHARGE     =           0.0000          UZF RECHARGE     =           0.0000
               GW ET     =    13735590.0000                 GW ET     =           0.2629
     SURFACE LEAKAGE     =           0.0000       SURFACE LEAKAGE     =           0.0000
           AG WELLS      =   435047680.0000             AG WELLS      =          11.2200

               TOTAL OUT =   795513344.0000                 TOTAL OUT =          46.9261

                IN - OUT =       -3840.0000                  IN - OUT =      -1.2665E-03

     PERCENT DISCREPANCY =          -0.00         PERCENT DISCREPANCY =          -0.00






         TIME SUMMARY AT END OF TIME STEP   30 IN STRESS PERIOD   10
                    SECONDS     MINUTES      HOURS       DAYS        YEARS
                    -----------------------------------------------------------
   TIME STEP LENGTH  87667.      1461.1      24.352      1.0147     2.77799E-03
 STRESS PERIOD TIME 2.63000E+06  43833.      730.56      30.440     8.33397E-02
         TOTAL TIME 2.37564E+07 3.95940E+05  6599.0      274.96     0.75279    
1
1
                            STRESS PERIOD NO.   11, LENGTH =   2630000.    
                            -----------------------------------------------

                              NUMBER OF TIME STEPS =    30

                               MULTIPLIER FOR DELT =     1.000

                            INITIAL TIME STEP SIZE =   87666.66    

 REUSING NON-PARAMETER GHB CELLS FROM LAST STRESS PERIOD

      2 GHB CELLS

 REUSING STREAM SEGMENT DATA FROM LAST STRESS PERIOD



            AREAL INFILTRATION RATE
 READING ON UNIT   19 WITH FORMAT: (FREE)              

            1           2           3           4           5           6           7           8           9          10
 ........................................................................................................................
   1   1.0000E-10  2.0000E-10   0.000       0.000       0.000       0.000       0.000       0.000       0.000       0.000    
   2   2.0000E-10  1.0000E-10  2.0000E-10   0.000       0.000      8.0000E-10  8.0000E-10  5.0000E-10   0.000       0.000    
   3    0.000      5.0000E-10  1.0000E-10  1.0000E-10  8.0000E-10  8.0000E-10  5.0000E-10  5.0000E-10   0.000       0.000    
   4   8.0000E-10  5.0000E-10  1.0000E-10  1.0000E-10  1.0000E-10  1.0000E-10  1.0000E-10  1.0000E-10  2.0000E-10   0.000    
   5   8.0000E-10  5.0000E-10  1.0000E-10  1.0000E-10  1.0000E-10  1.0000E-10  1.0000E-10  1.0000E-10  1.0000E-10  1.0000E-10
   6   8.0000E-10  5.0000E-10  5.0000E-10  2.0000E-10  2.0000E-10  1.0000E-10  1.0000E-10  1.0000E-10  1.0000E-10  5.0000E-10
   7   8.0000E-10  5.0000E-10  5.0000E-10  2.0000E-10  2.0000E-10  1.0000E-10  1.0000E-10  2.0000E-10  2.0000E-10   0.000    
   8    0.000      5.0000E-10  5.0000E-10  2.0000E-10  2.0000E-10  1.0000E-10  1.0000E-10  2.0000E-10  5.0000E-10   0.000    
   9    0.000      5.0000E-10  5.0000E-10  2.0000E-10  2.0000E-10  1.0000E-10  1.0000E-10  2.0000E-10  5.0000E-10   0.000    
  10    0.000      5.0000E-10  5.0000E-10  2.0000E-10  2.0000E-10  1.0000E-10  1.0000E-10  2.0000E-10  5.0000E-10  8.0000E-10
  11    0.000      1.0000E-10  1.0000E-10  1.0000E-10  1.0000E-10  1.0000E-10  1.0000E-10  2.0000E-10  5.0000E-10   0.000    
  12   1.0000E-10  1.0000E-10  1.0000E-10  1.0000E-10  1.0000E-10  1.0000E-10  1.0000E-10  1.0000E-10  2.0000E-10   0.000    
  13   1.0000E-10  1.0000E-10  2.0000E-10  2.0000E-10  2.0000E-10  2.0000E-10  2.0000E-10  1.0000E-10  1.0000E-10   0.000    
  14    0.000      2.0000E-10  5.0000E-10  5.0000E-10  5.0000E-10  5.0000E-10  5.0000E-10  2.0000E-10  1.0000E-10   0.000    
  15    0.000       0.000      8.0000E-10  8.0000E-10  8.0000E-10  8.0000E-10   0.000       0.000       0.000       0.000    

                  ET RATE =  5.000000E-09

 USING ET EXTINCTION DEPTH FROM PREVIOUS STRESS PERIOD. CURRENT PERIOD IS:      11

 USING EXTINCTION WATER CONTENT FROM PREVIOUS STRESS PERIOD. CURRENT PERIOD IS:      11

 USING AIR ENTRY PRESSURE FROM PREVIOUS STRESS PERIOD. CURRENT PERIOD IS:      11

 USING ROOT PRESSURE HEAD FROM PREVIOUS STRESS PERIOD. CURRENT PERIOD IS:      11

 USING ROOT ACTIVITY FROM PREVIOUS STRESS PERIOD. CURRENT PERIOD IS:      11

 PROCESSING AG STRESS PERIOD DATA

 READING AG STRESS PERIOD DATA

 READING IRRIGATION WELL

 NO IRRPOND OR REUSING IRRPOND DATA FROM LAST STRESS PERIOD

 END PROCESSING AG STRESS PERIOD DATA OPTIONS
 
 SOLVING FOR HEAD 
                                                   Max.-Head-Change                         Max.-Flux-Residual
  Residual-Control   Outer-Iter.   Inner-Iter.     Column Row Layer    Maximum-Head-Change  Column Row Layer    Maximum-Flux-Residual          L2-NORM 
          0                 1           2             4    7     1       0.1246897625E+00       4    7    1         0.6547055516E+01      0.1394924178E+02
          0                 2           2             5    6     1       0.1576728089E-01       5    6    1         0.8700856143E+00      0.1591068723E+01
          0                 3           2             5    6     1       0.3892685580E-02       5    6    1         0.2151065189E+00      0.2386069467E+00
          0                 4           2             5    6     1       0.9610431407E-03       5    6    1         0.5299275633E-01      0.5327631601E-01
          0                 5           2             5    6     1       0.2372667334E-03       5    6    1         0.1309486132E-01      0.1309588171E-01
          0                 6           1             5    6     1       0.5857749626E-04       5    6    1         0.3232063413E-02      0.3232211955E-02

    ------------------------------------------------
       NWT REQUIRED            6 OUTER ITERATIONS 
       AND A TOTAL OF         11 INNER ITERATIONS.
    ------------------------------------------------

 NO OUTPUT CONTROL FOR STRESS PERIOD   11   TIME STEP    1
 
 SOLVING FOR HEAD 
                                                   Max.-Head-Change                         Max.-Flux-Residual
  Residual-Control   Outer-Iter.   Inner-Iter.     Column Row Layer    Maximum-Head-Change  Column Row Layer    Maximum-Flux-Residual          L2-NORM 
          0                 1           2             4    7     1       0.1236808841E+00       4    7    1         0.6496795333E+01      0.1367919634E+02
          0                 2           2             4    7     1      -0.1201920396E-01       4    7    1        -0.6493405574E+00      0.1290858833E+01
          0                 3           2             4    7     1       0.8178441527E-03       4    7    1         0.4541945265E-01      0.9096009621E-01
          0                 4           1             4    7     1      -0.3250194548E-04       4    7    1        -0.1855326881E-02      0.3810642355E-02

    ------------------------------------------------
       NWT REQUIRED            4 OUTER ITERATIONS 
       AND A TOTAL OF          7 INNER ITERATIONS.
    ------------------------------------------------

 NO OUTPUT CONTROL FOR STRESS PERIOD   11   TIME STEP    2
 
 SOLVING FOR HEAD 
                                                   Max.-Head-Change                         Max.-Flux-Residual
  Residual-Control   Outer-Iter.   Inner-Iter.     Column Row Layer    Maximum-Head-Change  Column Row Layer    Maximum-Flux-Residual          L2-NORM 
          0                 1           2             4    7     1       0.1223166032E+00       4    7    1         0.6426468443E+01      0.1342933879E+02
          0                 2           2             4    6     1       0.1402186458E-01       4    6    1         0.7708754985E+00      0.1276006213E+01
          0                 3           2             4    6     1       0.3524851028E-02       4    6    1         0.1915440649E+00      0.2049697842E+00
          0                 4           2             4    6     1       0.8864319961E-03       4    6    1         0.4829324275E-01      0.4866638955E-01
          0                 5           2             4    6     1       0.2230069875E-03       4    6    1         0.1214079672E-01      0.1224167320E-01
          0                 6           1             4    6     1       0.5612542960E-04       4    6    1         0.3054629393E-02      0.3088317194E-02

    ------------------------------------------------
       NWT REQUIRED            6 OUTER ITERATIONS 
       AND A TOTAL OF         11 INNER ITERATIONS.
    ------------------------------------------------

 NO OUTPUT CONTROL FOR STRESS PERIOD   11   TIME STEP    3
 
 SOLVING FOR HEAD 
                                                   Max.-Head-Change                         Max.-Flux-Residual
  Residual-Control   Outer-Iter.   Inner-Iter.     Column Row Layer    Maximum-Head-Change  Column Row Layer    Maximum-Flux-Residual          L2-NORM 
          0                 1           2             4    7     1       0.1207263418E+00       4    7    1         0.6344677082E+01      0.1317322845E+02
          0                 2           2             4    7     1       0.1861747463E-01       4    7    1         0.1026765808E+01      0.1399733074E+01
          0                 3           2             4    7     1      -0.1810711765E-02       4    7    1        -0.1022024217E+00      0.1422370175E+00
          0                 4           1             5    8     1      -0.3468248786E-03       5    8    1        -0.1963643171E-01      0.2107258055E-01
          0                 5           1             5    8     1      -0.9271796752E-04       5    8    1        -0.5261736886E-02      0.5269805202E-02

    ------------------------------------------------
       NWT REQUIRED            5 OUTER ITERATIONS 
       AND A TOTAL OF          8 INNER ITERATIONS.
    ------------------------------------------------

 NO OUTPUT CONTROL FOR STRESS PERIOD   11   TIME STEP    4
 
 SOLVING FOR HEAD 
                                                   Max.-Head-Change                         Max.-Flux-Residual
  Residual-Control   Outer-Iter.   Inner-Iter.     Column Row Layer    Maximum-Head-Change  Column Row Layer    Maximum-Flux-Residual          L2-NORM 
          0                 1           2             4    7     1       0.1181168552E+00       4    7    1         0.6205995677E+01      0.1293110020E+02
          0                 2           2             5    8     1       0.1862895851E-01       5    8    1         0.1044477379E+01      0.1612778029E+01
          0                 3           2             5    8     1       0.4597589945E-02       5    8    1         0.2526501076E+00      0.2670003673E+00
          0                 4           1             5    8     1       0.1134686553E-02       5    8    1         0.6267469595E-01      0.6276427765E-01
          0                 5           1             5    8     1       0.2800408241E-03       5    8    1         0.1545525798E-01      0.1545599980E-01
          0                 6           1             5    8     1       0.6911414328E-04       5    8    1         0.3814273408E-02      0.3814496286E-02

    ------------------------------------------------
       NWT REQUIRED            6 OUTER ITERATIONS 
       AND A TOTAL OF          9 INNER ITERATIONS.
    ------------------------------------------------

 NO OUTPUT CONTROL FOR STRESS PERIOD   11   TIME STEP    5
 
 SOLVING FOR HEAD 
                                                   Max.-Head-Change                         Max.-Flux-Residual
  Residual-Control   Outer-Iter.   Inner-Iter.     Column Row Layer    Maximum-Head-Change  Column Row Layer    Maximum-Flux-Residual          L2-NORM 
          0                 1           2             4    7     1       0.1168070223E+00       4    7    1         0.6137854128E+01      0.1270063032E+02
          0                 2           2             4    8     1       0.1956147153E-01       4    8    1         0.1068255193E+01      0.1460325524E+01
          0                 3           2             4    8     1       0.4943185109E-02       4    8    1         0.2678859470E+00      0.2822776939E+00
          0                 4           2             4    8     1       0.1249141748E-02       4    8    1         0.6781056980E-01      0.6944121845E-01
          0                 5           2             4    8     1       0.3156558585E-03       4    8    1         0.1713177904E-01      0.1757658827E-01
          0                 6           1             4    8     1       0.7976515457E-04       4    8    1         0.4329082502E-02      0.4453920228E-02

    ------------------------------------------------
       NWT REQUIRED            6 OUTER ITERATIONS 
       AND A TOTAL OF         11 INNER ITERATIONS.
    ------------------------------------------------

 NO OUTPUT CONTROL FOR STRESS PERIOD   11   TIME STEP    6
 
 SOLVING FOR HEAD 
                                                   Max.-Head-Change                         Max.-Flux-Residual
  Residual-Control   Outer-Iter.   Inner-Iter.     Column Row Layer    Maximum-Head-Change  Column Row Layer    Maximum-Flux-Residual          L2-NORM 
          0                 1           2             4    7     1       0.1159493178E+00       4    7    1         0.6097083857E+01      0.1197204517E+02
          0                 2           2             5    7     1       0.2334494869E-01       5    7    1         0.1309225662E+01      0.1636614969E+01
          0                 3           2             5    7     1       0.4231858841E-02       5    7    1         0.2324981581E+00      0.2426456348E+00
          0                 4           2             5    7     1      -0.4114317898E-03       5    7    1        -0.2333164416E-01      0.2347500070E-01
          0                 5           1             5    7     1       0.2799683062E-04       5    7    1         0.1635759153E-02      0.1636155887E-02

    ------------------------------------------------
       NWT REQUIRED            5 OUTER ITERATIONS 
       AND A TOTAL OF          9 INNER ITERATIONS.
    ------------------------------------------------

 NO OUTPUT CONTROL FOR STRESS PERIOD   11   TIME STEP    7
 
 SOLVING FOR HEAD 
                                                   Max.-Head-Change                         Max.-Flux-Residual
  Residual-Control   Outer-Iter.   Inner-Iter.     Column Row Layer    Maximum-Head-Change  Column Row Layer    Maximum-Flux-Residual          L2-NORM 
          0                 1           2             4    7     1       0.1151572498E+00       4    7    1         0.6060658627E+01      0.1173701275E+02
          0                 2           2             4    7     1      -0.1119243914E-01       4    7    1        -0.6057525930E+00      0.1094654943E+01
          0                 3           2             4    7     1       0.7615061445E-03       4    7    1         0.4237064083E-01      0.7711763421E-01
          0                 4           1             5    6     1      -0.3797484113E-04       5    6    1        -0.2107055948E-02      0.3774190257E-02

    ------------------------------------------------
       NWT REQUIRED            4 OUTER ITERATIONS 
       AND A TOTAL OF          7 INNER ITERATIONS.
    ------------------------------------------------

 NO OUTPUT CONTROL FOR STRESS PERIOD   11   TIME STEP    8
 
 SOLVING FOR HEAD 
                                                   Max.-Head-Change                         Max.-Flux-Residual
  Residual-Control   Outer-Iter.   Inner-Iter.     Column Row Layer    Maximum-Head-Change  Column Row Layer    Maximum-Flux-Residual          L2-NORM 
          0                 1           2             4    7     1       0.1136663524E+00       4    7    1         0.5983504544E+01      0.1153175919E+02
          0                 2           2             4    7     1       0.2032497861E-01       4    7    1         0.1112660036E+01      0.1765732807E+01
          0                 3           2             4    7     1       0.5161412013E-02       4    7    1         0.2782087570E+00      0.4068214956E+00
          0                 4           2             4    7     1       0.1304454594E-02       4    7    1         0.7065017217E-01      0.1026186208E+00
          0                 5           2             4    7     1       0.3309650033E-03       4    7    1         0.1790633395E-01      0.2606484363E-01
          0                 6           1             4    7     1       0.8402707889E-04       4    7    1         0.4544468269E-02      0.6632534555E-02

    ------------------------------------------------
       NWT REQUIRED            6 OUTER ITERATIONS 
       AND A TOTAL OF         11 INNER ITERATIONS.
    ------------------------------------------------

 NO OUTPUT CONTROL FOR STRESS PERIOD   11   TIME STEP    9
 
 SOLVING FOR HEAD 
                                                   Max.-Head-Change                         Max.-Flux-Residual
  Residual-Control   Outer-Iter.   Inner-Iter.     Column Row Layer    Maximum-Head-Change  Column Row Layer    Maximum-Flux-Residual          L2-NORM 
          0                 1           2             4    7     1       0.1105867551E+00       4    7    1         0.5820686544E+01      0.1129806376E+02
          0                 2           2             4    6     1       0.1236838485E-01       4    6    1         0.6867015130E+00      0.1135666353E+01
          0                 3           2             4    6     1      -0.1202492414E-02       4    6    1        -0.6828854450E-01      0.9327787755E-01
          0                 4           1             4    6     1       0.8182648566E-04       4    6    1         0.4753248705E-02      0.5428606377E-02

    ------------------------------------------------
       NWT REQUIRED            4 OUTER ITERATIONS 
       AND A TOTAL OF          7 INNER ITERATIONS.
    ------------------------------------------------

 NO OUTPUT CONTROL FOR STRESS PERIOD   11   TIME STEP   10
 
 SOLVING FOR HEAD 
                                                   Max.-Head-Change                         Max.-Flux-Residual
  Residual-Control   Outer-Iter.   Inner-Iter.     Column Row Layer    Maximum-Head-Change  Column Row Layer    Maximum-Flux-Residual          L2-NORM 
          0                 1           2             4    7     1       0.1092738925E+00       4    7    1         0.5753882635E+01      0.1109924793E+02
          0                 2           2             4    7     1      -0.1062384098E-01       4    7    1        -0.5750919996E+00      0.1109355635E+01
          0                 3           2             4    7     1       0.7228976080E-03       4    7    1         0.4022602050E-01      0.7759906045E-01
          0                 4           1             4    7     1      -0.2872874602E-04       4    7    1        -0.1643185975E-02      0.3170000819E-02

    ------------------------------------------------
       NWT REQUIRED            4 OUTER ITERATIONS 
       AND A TOTAL OF          7 INNER ITERATIONS.
    ------------------------------------------------

 NO OUTPUT CONTROL FOR STRESS PERIOD   11   TIME STEP   11
 
 SOLVING FOR HEAD 
                                                   Max.-Head-Change                         Max.-Flux-Residual
  Residual-Control   Outer-Iter.   Inner-Iter.     Column Row Layer    Maximum-Head-Change  Column Row Layer    Maximum-Flux-Residual          L2-NORM 
          0                 1           2             4    7     1       0.1078043969E+00       4    7    1         0.5677656653E+01      0.1091906901E+02
          0                 2           2             4    7     1      -0.1048097574E-01       4    7    1        -0.5674735230E+00      0.1091326310E+01
          0                 3           2             4    7     1       0.7131764641E-03       4    7    1         0.3969313492E-01      0.7633805013E-01
          0                 4           1             4    7     1      -0.2834242500E-04       4    7    1        -0.1621418644E-02      0.3118508152E-02

    ------------------------------------------------
       NWT REQUIRED            4 OUTER ITERATIONS 
       AND A TOTAL OF          7 INNER ITERATIONS.
    ------------------------------------------------

 NO OUTPUT CONTROL FOR STRESS PERIOD   11   TIME STEP   12
 
 SOLVING FOR HEAD 
                                                   Max.-Head-Change                         Max.-Flux-Residual
  Residual-Control   Outer-Iter.   Inner-Iter.     Column Row Layer    Maximum-Head-Change  Column Row Layer    Maximum-Flux-Residual          L2-NORM 
          0                 1           2             4    7     1       0.1063354985E+00       4    7    1         0.5601299088E+01      0.1074496251E+02
          0                 2           2             4    7     1      -0.1012397975E-01       4    7    1        -0.5598418439E+00      0.1072197207E+01
          0                 3           2             4    8     1       0.1919904231E-02       4    8    1         0.1035881069E+00      0.1244609223E+00
          0                 4           2             4    8     1       0.4840928201E-03       4    8    1         0.2634625401E-01      0.2648963126E-01
          0                 5           2             4    8     1       0.1220610339E-03       4    8    1         0.6634215129E-02      0.6634636219E-02
          0                 6           1             4    8     1       0.3077694823E-04       4    8    1         0.1672789758E-02      0.1672878499E-02

    ------------------------------------------------
       NWT REQUIRED            6 OUTER ITERATIONS 
       AND A TOTAL OF         11 INNER ITERATIONS.
    ------------------------------------------------

 NO OUTPUT CONTROL FOR STRESS PERIOD   11   TIME STEP   13
 
 SOLVING FOR HEAD 
                                                   Max.-Head-Change                         Max.-Flux-Residual
  Residual-Control   Outer-Iter.   Inner-Iter.     Column Row Layer    Maximum-Head-Change  Column Row Layer    Maximum-Flux-Residual          L2-NORM 
          0                 1           2             4    7     1       0.1051161162E+00       4    7    1         0.5539028551E+01      0.1056870991E+02
          0                 2           2             4    8     1       0.1705249929E-01       4    8    1         0.9377330416E+00      0.1492998980E+01
          0                 3           2             5    7     1       0.3348432259E-02       5    7    1         0.1837939354E+00      0.2152212879E+00
          0                 4           2             5    7     1       0.8250332450E-03       5    7    1         0.4563922596E-01      0.4616069023E-01
          0                 5           2             5    7     1       0.2032829444E-03       5    7    1         0.1123117295E-01      0.1123509738E-01
          0                 6           1             5    7     1       0.5008764122E-04       5    7    1         0.2767328079E-02      0.2767514125E-02

    ------------------------------------------------
       NWT REQUIRED            6 OUTER ITERATIONS 
       AND A TOTAL OF         11 INNER ITERATIONS.
    ------------------------------------------------

 NO OUTPUT CONTROL FOR STRESS PERIOD   11   TIME STEP   14
 
 SOLVING FOR HEAD 
                                                   Max.-Head-Change                         Max.-Flux-Residual
  Residual-Control   Outer-Iter.   Inner-Iter.     Column Row Layer    Maximum-Head-Change  Column Row Layer    Maximum-Flux-Residual          L2-NORM 
          0                 1           2             4    7     1       0.1043455290E+00       4    7    1         0.5502613516E+01      0.1038548205E+02
          0                 2           2             4    7     1       0.2126508874E-01       4    7    1         0.1165110551E+01      0.1471431347E+01
          0                 3           2             4    7     1       0.5338362624E-02       4    7    1         0.2909463798E+00      0.2994720380E+00
          0                 4           1             4    7     1       0.1340140138E-02       4    7    1         0.7306453379E-01      0.7316402371E-01
          0                 5           1             4    7     1       0.3364282417E-03       4    7    1         0.1834559897E-01      0.1834628053E-01
          0                 6           1             4    7     1       0.8445681718E-04       4    7    1         0.4605033586E-02      0.4605195269E-02

    ------------------------------------------------
       NWT REQUIRED            6 OUTER ITERATIONS 
       AND A TOTAL OF          9 INNER ITERATIONS.
    ------------------------------------------------

 NO OUTPUT CONTROL FOR STRESS PERIOD   11   TIME STEP   15
 
 SOLVING FOR HEAD 
                                                   Max.-Head-Change                         Max.-Flux-Residual
  Residual-Control   Outer-Iter.   Inner-Iter.     Column Row Layer    Maximum-Head-Change  Column Row Layer    Maximum-Flux-Residual          L2-NORM 
          0                 1           2             4    7     1       0.1004732000E+00       4    7    1         0.5327665875E+01      0.9527536686E+01
          0                 2           2             5    7     1      -0.7355404310E-02       5    7    1        -0.4024982892E+00      0.8367797613E+00
          0                 3           2             4    6     1       0.1632968217E-02       4    6    1         0.8823081533E-01      0.1028093902E+00
          0                 4           2             4    6     1       0.4097851683E-03       4    6    1         0.2238526633E-01      0.2248123045E-01
          0                 5           1             4    6     1       0.1028333308E-03       4    6    1         0.5608015508E-02      0.5608410972E-02
          0                 6           1             4    6     1       0.2580546651E-04       4    6    1         0.1407337890E-02      0.1407419175E-02

    ------------------------------------------------
       NWT REQUIRED            6 OUTER ITERATIONS 
       AND A TOTAL OF         10 INNER ITERATIONS.
    ------------------------------------------------

 NO OUTPUT CONTROL FOR STRESS PERIOD   11   TIME STEP   16
 
 SOLVING FOR HEAD 
                                                   Max.-Head-Change                         Max.-Flux-Residual
  Residual-Control   Outer-Iter.   Inner-Iter.     Column Row Layer    Maximum-Head-Change  Column Row Layer    Maximum-Flux-Residual          L2-NORM 
          0                 1           2             4    7     1       0.9789880056E-01       4    7    1         0.5226820121E+01      0.8627349793E+01
          0                 2           2             4    6     1       0.1763539849E-01       4    6    1         0.9717501071E+00      0.1173338398E+01
          0                 3           2             4    6     1      -0.1721598382E-02       4    6    1        -0.9685387041E-01      0.1088419978E+00
          0                 4           2             4    6     1       0.1153206484E-03       4    6    1         0.6758795526E-02      0.8889248705E-02
          0                 5           1             5    6     1      -0.2521738431E-04       5    6    1        -0.1426384170E-02      0.1453444169E-02

    ------------------------------------------------
       NWT REQUIRED            5 OUTER ITERATIONS 
       AND A TOTAL OF          9 INNER ITERATIONS.
    ------------------------------------------------

 NO OUTPUT CONTROL FOR STRESS PERIOD   11   TIME STEP   17
 
 SOLVING FOR HEAD 
                                                   Max.-Head-Change                         Max.-Flux-Residual
  Residual-Control   Outer-Iter.   Inner-Iter.     Column Row Layer    Maximum-Head-Change  Column Row Layer    Maximum-Flux-Residual          L2-NORM 
          0                 1           2             4    7     1       0.9567498435E-01       4    7    1         0.5105781733E+01      0.8450173748E+01
          0                 2           2             5    6     1       0.1573062379E-01       5    6    1         0.8791787210E+00      0.1170603802E+01
          0                 3           2             5    6     1       0.3883205966E-02       5    6    1         0.2135389821E+00      0.2203662286E+00
          0                 4           2             5    6     1       0.9586006383E-03       5    6    1         0.5292968118E-01      0.5297024519E-01
          0                 5           2             5    6     1       0.2366382162E-03       5    6    1         0.1305740517E-01      0.1305798804E-01
          0                 6           1             5    6     1       0.5841604683E-04       5    6    1         0.3223401181E-02      0.3223535139E-02

    ------------------------------------------------
       NWT REQUIRED            6 OUTER ITERATIONS 
       AND A TOTAL OF         11 INNER ITERATIONS.
    ------------------------------------------------

 NO OUTPUT CONTROL FOR STRESS PERIOD   11   TIME STEP   18
 
 SOLVING FOR HEAD 
                                                   Max.-Head-Change                         Max.-Flux-Residual
  Residual-Control   Outer-Iter.   Inner-Iter.     Column Row Layer    Maximum-Head-Change  Column Row Layer    Maximum-Flux-Residual          L2-NORM 
          0                 1           2             4    7     1       0.9322324210E-01       4    7    1         0.4971802681E+01      0.7751316278E+01
          0                 2           2             4    7     1      -0.9063519724E-02       4    7    1        -0.4969344720E+00      0.7747673313E+00
          0                 3           2             4    7     1       0.6167305754E-03       4    7    1         0.3475939575E-01      0.5419712171E-01
          0                 4           1             4    7     1      -0.2450993483E-04       4    7    1        -0.1419903645E-02      0.2214181714E-02

    ------------------------------------------------
       NWT REQUIRED            4 OUTER ITERATIONS 
       AND A TOTAL OF          7 INNER ITERATIONS.
    ------------------------------------------------

 NO OUTPUT CONTROL FOR STRESS PERIOD   11   TIME STEP   19
 
 SOLVING FOR HEAD 
                                                   Max.-Head-Change                         Max.-Flux-Residual
  Residual-Control   Outer-Iter.   Inner-Iter.     Column Row Layer    Maximum-Head-Change  Column Row Layer    Maximum-Flux-Residual          L2-NORM 
          0                 1           2             4    7     1       0.9085973747E-01       4    7    1         0.4843708269E+01      0.7529413763E+01
          0                 2           2             4    7     1      -0.8833720362E-02       4    7    1        -0.4841306489E+00      0.7525893108E+00
          0                 3           2             4    7     1       0.6010937339E-03       4    7    1         0.3386379358E-01      0.5264592593E-01
          0                 4           1             4    7     1      -0.2388848974E-04       4    7    1        -0.1383317988E-02      0.2150807740E-02

    ------------------------------------------------
       NWT REQUIRED            4 OUTER ITERATIONS 
       AND A TOTAL OF          7 INNER ITERATIONS.
    ------------------------------------------------

 NO OUTPUT CONTROL FOR STRESS PERIOD   11   TIME STEP   20
 
 SOLVING FOR HEAD 
                                                   Max.-Head-Change                         Max.-Flux-Residual
  Residual-Control   Outer-Iter.   Inner-Iter.     Column Row Layer    Maximum-Head-Change  Column Row Layer    Maximum-Flux-Residual          L2-NORM 
          0                 1           2             4    7     1       0.8859266908E-01       4    7    1         0.4720901661E+01      0.7388665158E+01
          0                 2           2             4    7     1      -0.8613297666E-02       4    7    1        -0.4718554064E+00      0.7385214486E+00
          0                 3           2             4    7     1       0.5860949117E-03       4    7    1         0.3300516463E-01      0.5166190206E-01
          0                 4           1             4    7     1      -0.2329240024E-04       4    7    1        -0.1348242761E-02      0.2110608006E-02

    ------------------------------------------------
       NWT REQUIRED            4 OUTER ITERATIONS 
       AND A TOTAL OF          7 INNER ITERATIONS.
    ------------------------------------------------

 NO OUTPUT CONTROL FOR STRESS PERIOD   11   TIME STEP   21
 
 SOLVING FOR HEAD 
                                                   Max.-Head-Change                         Max.-Flux-Residual
  Residual-Control   Outer-Iter.   Inner-Iter.     Column Row Layer    Maximum-Head-Change  Column Row Layer    Maximum-Flux-Residual          L2-NORM 
          0                 1           2             4    6     1       0.7303456305E-01       4    6    1         0.3925384671E+01      0.6023197866E+01
          0                 2           2             4    6     1      -0.7100655281E-02       4    6    1        -0.3923401746E+00      0.6020522698E+00
          0                 3           2             4    6     1       0.4831712998E-03       4    6    1         0.2744348365E-01      0.4211718296E-01
          0                 4           1             4    6     1      -0.1920231943E-04       4    6    1        -0.1121062799E-02      0.1720807894E-02

    ------------------------------------------------
       NWT REQUIRED            4 OUTER ITERATIONS 
       AND A TOTAL OF          7 INNER ITERATIONS.
    ------------------------------------------------

 NO OUTPUT CONTROL FOR STRESS PERIOD   11   TIME STEP   22
 
 SOLVING FOR HEAD 
                                                   Max.-Head-Change                         Max.-Flux-Residual
  Residual-Control   Outer-Iter.   Inner-Iter.     Column Row Layer    Maximum-Head-Change  Column Row Layer    Maximum-Flux-Residual          L2-NORM 
          0                 1           2             4    6     1       0.7065896721E-01       4    6    1         0.3794771564E+01      0.5914047482E+01
          0                 2           2             4    6     1      -0.6869685468E-02       4    6    1        -0.3792849861E+00      0.5911428093E+00
          0                 3           2             4    6     1       0.4674545760E-03       4    6    1         0.2653028480E-01      0.4135407528E-01
          0                 4           1             4    6     1      -0.1857768934E-04       4    6    1        -0.1083757712E-02      0.1689617476E-02

    ------------------------------------------------
       NWT REQUIRED            4 OUTER ITERATIONS 
       AND A TOTAL OF          7 INNER ITERATIONS.
    ------------------------------------------------

 NO OUTPUT CONTROL FOR STRESS PERIOD   11   TIME STEP   23
 
 SOLVING FOR HEAD 
                                                   Max.-Head-Change                         Max.-Flux-Residual
  Residual-Control   Outer-Iter.   Inner-Iter.     Column Row Layer    Maximum-Head-Change  Column Row Layer    Maximum-Flux-Residual          L2-NORM 
          0                 1           2             4    6     1       0.6841245089E-01       4    6    1         0.3671350496E+01      0.5810636979E+01
          0                 2           2             4    7     1      -0.4055788229E-02       4    7    1        -0.2197542903E+00      0.4789316893E+00
          0                 3           2             4    6     1      -0.8198743377E-03       4    6    1        -0.4640475819E-01      0.5608459386E-01
          0                 4           2             4    6     1      -0.2224783932E-03       4    6    1        -0.1245862086E-01      0.1252678875E-01
          0                 5           1             4    6     1      -0.6036957877E-04       4    6    1        -0.3385317340E-02      0.3385360327E-02

    ------------------------------------------------
       NWT REQUIRED            5 OUTER ITERATIONS 
       AND A TOTAL OF          9 INNER ITERATIONS.
    ------------------------------------------------

 NO OUTPUT CONTROL FOR STRESS PERIOD   11   TIME STEP   24
 
 SOLVING FOR HEAD 
                                                   Max.-Head-Change                         Max.-Flux-Residual
  Residual-Control   Outer-Iter.   Inner-Iter.     Column Row Layer    Maximum-Head-Change  Column Row Layer    Maximum-Flux-Residual          L2-NORM 
          0                 1           2             4    6     1       0.6617811452E-01       4    6    1         0.3548649100E+01      0.5709961089E+01
          0                 2           2             4    6     1       0.1660604276E-01       4    6    1         0.9120646896E+00      0.1015780730E+01
          0                 3           2             4    6     1       0.4166942873E-02       4    6    1         0.2268709836E+00      0.2290688136E+00
          0                 4           2             4    6     1       0.1045610945E-02       4    6    1         0.5705060039E-01      0.5706209870E-01
          0                 5           2             4    6     1       0.2623751385E-03       4    6    1         0.1431072912E-01      0.1431110396E-01
          0                 6           1             4    6     1       0.6583779816E-04       4    6    1         0.3591195184E-02      0.3591243168E-02

    ------------------------------------------------
       NWT REQUIRED            6 OUTER ITERATIONS 
       AND A TOTAL OF         11 INNER ITERATIONS.
    ------------------------------------------------

 NO OUTPUT CONTROL FOR STRESS PERIOD   11   TIME STEP   25
 
 SOLVING FOR HEAD 
                                                   Max.-Head-Change                         Max.-Flux-Residual
  Residual-Control   Outer-Iter.   Inner-Iter.     Column Row Layer    Maximum-Head-Change  Column Row Layer    Maximum-Flux-Residual          L2-NORM 
          0                 1           2             4    7     1       0.4195191423E-01       4    7    1         0.2213784249E+01      0.4722695688E+01
          0                 2           2             4    7     1      -0.4078614395E-02       4    7    1        -0.2212616166E+00      0.4720780085E+00
          0                 3           2             4    7     1       0.2775296578E-03       4    7    1         0.1547666378E-01      0.3302676678E-01
          0                 4           1             4    7     1      -0.1102936687E-04       4    7    1        -0.6322052332E-03      0.1349536412E-02

    ------------------------------------------------
       NWT REQUIRED            4 OUTER ITERATIONS 
       AND A TOTAL OF          7 INNER ITERATIONS.
    ------------------------------------------------

 NO OUTPUT CONTROL FOR STRESS PERIOD   11   TIME STEP   26
 
 SOLVING FOR HEAD 
                                                   Max.-Head-Change                         Max.-Flux-Residual
  Residual-Control   Outer-Iter.   Inner-Iter.     Column Row Layer    Maximum-Head-Change  Column Row Layer    Maximum-Flux-Residual          L2-NORM 
          0                 1           2             4    7     1       0.4116264559E-01       4    7    1         0.2179753450E+01      0.4504651426E+01
          0                 2           2             4    7     1      -0.4001888478E-02       4    7    1        -0.2178607851E+00      0.4502870880E+00
          0                 3           2             4    7     1       0.2723095091E-03       4    7    1         0.1523882428E-01      0.3150271729E-01
          0                 4           1             4    7     1      -0.1082195656E-04       4    7    1        -0.6224924514E-03      0.1287284861E-02

    ------------------------------------------------
       NWT REQUIRED            4 OUTER ITERATIONS 
       AND A TOTAL OF          7 INNER ITERATIONS.
    ------------------------------------------------

 NO OUTPUT CONTROL FOR STRESS PERIOD   11   TIME STEP   27
 
 SOLVING FOR HEAD 
                                                   Max.-Head-Change                         Max.-Flux-Residual
  Residual-Control   Outer-Iter.   Inner-Iter.     Column Row Layer    Maximum-Head-Change  Column Row Layer    Maximum-Flux-Residual          L2-NORM 
          0                 1           2             4    7     1       0.4040499377E-01       4    7    1         0.2138742612E+01      0.4444349975E+01
          0                 2           2             4    7     1      -0.3928226783E-02       4    7    1        -0.2137617405E+00      0.4442593550E+00
          0                 3           2             4    7     1       0.2672971180E-03       4    7    1         0.1495210222E-01      0.3108098182E-01
          0                 4           1             4    7     1      -0.1062275242E-04       4    7    1        -0.6107797958E-03      0.1270049702E-02

    ------------------------------------------------
       NWT REQUIRED            4 OUTER ITERATIONS 
       AND A TOTAL OF          7 INNER ITERATIONS.
    ------------------------------------------------

 NO OUTPUT CONTROL FOR STRESS PERIOD   11   TIME STEP   28
 
 SOLVING FOR HEAD 
                                                   Max.-Head-Change                         Max.-Flux-Residual
  Residual-Control   Outer-Iter.   Inner-Iter.     Column Row Layer    Maximum-Head-Change  Column Row Layer    Maximum-Flux-Residual          L2-NORM 
          0                 1           2             4    7     1       0.3967698853E-01       4    7    1         0.2099378829E+01      0.4385769203E+01
          0                 2           2             4    7     1      -0.3857447514E-02       4    7    1        -0.2098273243E+00      0.4384032241E+00
          0                 3           2             4    7     1       0.2624808675E-03       4    7    1         0.1467689583E-01      0.3067131031E-01
          0                 4           1             4    7     1      -0.1043134335E-04       4    7    1        -0.5995375691E-03      0.1253310515E-02

    ------------------------------------------------
       NWT REQUIRED            4 OUTER ITERATIONS 
       AND A TOTAL OF          7 INNER ITERATIONS.
    ------------------------------------------------

 NO OUTPUT CONTROL FOR STRESS PERIOD   11   TIME STEP   29
 
 SOLVING FOR HEAD 
                                                   Max.-Head-Change                         Max.-Flux-Residual
  Residual-Control   Outer-Iter.   Inner-Iter.     Column Row Layer    Maximum-Head-Change  Column Row Layer    Maximum-Flux-Residual          L2-NORM 
          0                 1           2             4    7     1       0.3897666891E-01       4    7    1         0.2061552170E+01      0.4328794362E+01
          0                 2           2             4    7     1      -0.3789360013E-02       4    7    1        -0.2060465484E+00      0.4327085151E+00
          0                 3           2             4    7     1       0.2578477847E-03       4    7    1         0.1441243656E-01      0.3027290150E-01
          0                 4           1             4    7     1      -0.1024721413E-04       4    7    1        -0.5887343614E-03      0.1237037672E-02

    ------------------------------------------------
       NWT REQUIRED            4 OUTER ITERATIONS 
       AND A TOTAL OF          7 INNER ITERATIONS.
    ------------------------------------------------

 NO OUTPUT CONTROL FOR STRESS PERIOD   11   TIME STEP   30



 STREAM LISTING     PERIOD     11   STEP       30

 LAYER ROW COL. STREAM  RCH.  FLOW INTO     FLOW TO   FLOW OUT OF   OVRLND.     DIRECT     STREAM       STREAM     STREAM     STREAM   STREAMBED  STREAMBED
                SEG.NO.  NO.  STRM. RCH.    AQUIFER    STRM. RCH.    RUNOFF     PRECIP       ET          HEAD       DEPTH      WIDTH   CONDCTNC.   GRADIENT

   1    1    1     1     1    3.5000E+01  2.8629E-01   3.4713E+01  0.000E+00  0.000E+00  0.000E+00  1.09434E+03  1.292E+00  1.482E+01  6.670E-02  1.431E+00
   1    2    2     1     2    3.4713E+01  4.4324E-01   3.4270E+01  0.000E+00  0.000E+00  0.000E+00  1.08935E+03  1.289E+00  1.476E+01  1.033E-01  1.430E+00
   1    3    3     1     3    3.4270E+01  3.7790E-01   3.3892E+01  0.000E+00  0.000E+00  0.000E+00  1.08370E+03  1.286E+00  1.470E+01  8.817E-02  1.429E+00
   1    3    4     1     4    3.3892E+01  3.4789E-01   3.3544E+01  0.000E+00  0.000E+00  0.000E+00  1.07869E+03  1.283E+00  1.464E+01  8.123E-02  1.428E+00
   1    4    5     2     1    3.1544E+01  3.4194E-01   3.1202E+01  0.000E+00  0.000E+00  0.000E+00  1.07332E+03  1.384E+00  1.200E+01  7.800E-02  1.461E+00
   1    5    6     2     2    3.1202E+01  2.6255E-01   3.0940E+01  0.000E+00  0.000E+00  0.000E+00  1.06789E+03  1.376E+00  1.200E+01  6.000E-02  1.459E+00
   1    6    6     2     3    3.0940E+01  2.6213E-01   3.0678E+01  0.000E+00  0.000E+00  0.000E+00  1.06316E+03  1.369E+00  1.200E+01  6.000E-02  1.456E+00
   1    7    6     2     4    3.0678E+01  2.6171E-01   3.0416E+01  0.000E+00  0.000E+00  0.000E+00  1.05844E+03  1.362E+00  1.200E+01  6.000E-02  1.454E+00
   1    8    6     2     5    3.0416E+01  2.6129E-01   3.0155E+01  0.000E+00  0.000E+00  0.000E+00  1.05371E+03  1.355E+00  1.200E+01  6.000E-02  1.452E+00
   1    3    5     3     1    2.0000E+00  2.8252E-01   1.7175E+00  0.000E+00  0.000E+00  0.000E+00  1.07555E+03  1.909E+00  9.636E+00  7.227E-02  1.955E+00
   1    3    6     3     2    1.7175E+00  2.4905E-01   1.4684E+00  0.000E+00  0.000E+00  0.000E+00  1.07264E+03  1.727E+00  8.909E+00  6.682E-02  1.864E+00
   1    3    7     3     3    1.4684E+00  1.9718E-01   1.2712E+00  0.000E+00  0.000E+00  0.000E+00  1.06987E+03  1.555E+00  8.218E+00  5.547E-02  1.777E+00
   1    4    8     3     4    1.2712E+00  2.2567E-01   1.0456E+00  0.000E+00  0.000E+00  0.000E+00  1.06682E+03  1.364E+00  7.455E+00  6.709E-02  1.682E+00
   1    5    8     3     5    1.0456E+00  1.5790E-01   8.8768E-01  0.000E+00  0.000E+00  0.000E+00  1.06362E+03  1.164E+00  6.655E+00  4.991E-02  1.582E+00
   1    6    8     3     6    8.8768E-01  5.5980E-02   8.3170E-01  0.000E+00  0.000E+00  0.000E+00  1.06158E+03  1.036E+00  6.145E+00  1.844E-02  1.518E+00
   1    5   10     4     1    1.0000E+01  9.0919E-02   9.9091E+00  0.000E+00  0.000E+00  0.000E+00  1.07836E+03  6.368E-01  1.000E+01  2.500E-02  1.212E+00
   1    5    9     4     2    9.9091E+00  1.8158E-01   9.7275E+00  0.000E+00  0.000E+00  0.000E+00  1.07154E+03  6.315E-01  1.000E+01  5.000E-02  1.211E+00
   1    6    8     4     3    9.7275E+00  1.2689E-01   9.6006E+00  0.000E+00  0.000E+00  0.000E+00  1.06381E+03  6.256E-01  1.000E+01  3.500E-02  1.209E+00
   1    6    8     5     1    1.0432E+01  2.2686E-01   1.0205E+01  0.000E+00  0.000E+00  0.000E+00  1.05868E+03  6.790E-01  1.542E+01  6.166E-02  1.226E+00
   1    7    7     5     2    1.0205E+01  2.7894E-01   9.9265E+00  0.000E+00  0.000E+00  0.000E+00  1.05417E+03  6.732E-01  1.519E+01  7.594E-02  1.224E+00
   1    8    7     5     3    9.9265E+00  1.9221E-01   9.7343E+00  0.000E+00  0.000E+00  0.000E+00  1.04992E+03  6.676E-01  1.497E+01  5.241E-02  1.223E+00
   1    8    6     5     4    9.7343E+00  1.3577E-01   9.5985E+00  0.000E+00  0.000E+00  0.000E+00  1.04691E+03  6.637E-01  1.482E+01  3.706E-02  1.221E+00
   1    9    6     6     1    3.9753E+01  2.7657E-01   3.9477E+01  0.000E+00  0.000E+00  0.000E+00  1.04434E+03  1.609E+00  1.200E+01  6.000E-02  1.536E+00
   1   10    7     6     2    3.9477E+01  2.7616E-01   3.9201E+01  0.000E+00  0.000E+00  0.000E+00  1.03978E+03  1.603E+00  1.200E+01  6.000E-02  1.534E+00
   1   11    7     6     3    3.9201E+01  2.7576E-01   3.8925E+01  0.000E+00  0.000E+00  0.000E+00  1.03523E+03  1.596E+00  1.200E+01  6.000E-02  1.532E+00
   1   12    7     6     4    3.8925E+01  2.7535E-01   3.8649E+01  0.000E+00  0.000E+00  0.000E+00  1.03068E+03  1.589E+00  1.200E+01  6.000E-02  1.530E+00
   1   13    7     6     5    3.8649E+01  6.4941E-03   3.8643E+01  0.000E+00  0.000E+00  0.000E+00  1.02749E+03  1.586E+00  1.200E+01  2.400E-02  9.020E-02
   1   14    9     7     1    1.5000E+02  1.3303E+00   1.4867E+02  0.000E+00  0.000E+00  0.000E+00  1.03987E+03  2.288E+00  5.529E+01  5.593E-01  7.928E-01
   1   13    8     7     2    1.4867E+02  1.7944E+00   1.4688E+02  0.000E+00  0.000E+00  0.000E+00  1.03478E+03  2.279E+00  5.526E+01  6.148E-01  9.729E-01
   1   13    7     7     3    1.4688E+02  1.3772E+00   1.4550E+02  0.000E+00  0.000E+00  0.000E+00  1.02969E+03  2.271E+00  5.522E+01  5.585E-01  8.220E-01
   1   13    6     8     1    1.8414E+02  8.8518E-01   1.8326E+02  0.000E+00  0.000E+00  0.000E+00  1.02491E+03  3.039E+00  4.407E+01  4.491E-01  6.570E-01
   1   13    5     8     2    1.8326E+02  1.2741E-01   1.8313E+02  0.000E+00  0.000E+00  0.000E+00  1.01866E+03  3.036E+00  4.402E+01  4.486E-01  9.467E-02
   1   13    4     8     3    1.8313E+02 -2.6104E+00   1.8574E+02  0.000E+00  0.000E+00  0.000E+00  1.01242E+03  3.044E+00  4.414E+01  4.498E+00 -1.935E-01
   1   13    3     8     4    1.8574E+02 -3.7472E+00   1.8949E+02  0.000E+00  0.000E+00  0.000E+00  1.00619E+03  3.063E+00  4.442E+01  4.526E+00 -2.759E-01
   1   13    2     8     5    1.8949E+02 -2.6145E+00   1.9210E+02  0.000E+00  0.000E+00  0.000E+00  9.99958E+02  3.083E+00  4.470E+01  4.555E+00 -1.913E-01
   1   13    1     8     6    1.9210E+02 -2.0206E+00   1.9412E+02  0.000E+00  0.000E+00  0.000E+00  9.94972E+02  3.097E+00  4.490E+01  2.745E+00 -2.453E-01





UNSATURATED ZONE PACKAGE VOLUMETRIC BUDGET FOR  TIME STEP    30 STRESS PERIOD   11
  ------------------------------------------------------------------------------



     CUMULATIVE VOLUMES      L**3       RATES FOR THIS TIME STEP      L**3/T
     ------------------                 ------------------------

           IN:                                      IN:
           ---                                      ---
        INFILTRATION =   457410534.2728          INFILTRATION =           0.8475

          OUT:                                     OUT:
          ----                                     ----
              UZF ET =   419404502.7167                UZF ET =           0.8475
        UZF RECHARGE =    37931545.8261          UZF RECHARGE =           0.0004

            IN - OUT =       74485.7300              IN - OUT =      -4.3020E-04

          STORAGE:                                 STORAGE:
          --------                                 --------
      STORAGE CHANGE =       74486.1954        STORAGE CHANGE =      -4.3020E-04

 PERCENT DISCREPANCY IS DIFFERENCE BETWEEN IN-OUT MINUS CHANGE IN STORAGE
 DIVIDED BY THE AVERAGE OF IN AND OUT TIMES 100

 PERCENT DISCREPANCY =           0.00     PERCENT DISCREPANCY =           0.00






1
  VOLUMETRIC BUDGET FOR AGRICULTURAL FIELDS AT  END OF TIME STEP   30, STRESS PERIOD  11
  ------------------------------------------------------------------------------

     CUMULATIVE VOLUMES      L**3       RATES FOR THIS TIME STEP      L**3/T
     ------------------                 ------------------------

           IN:                                      IN:
           ---                                      ---
               AG WELLS  =   435047680.0000                 AG WELLS  =           0.0000
      DIVERSION SEGMENTS =           0.0000        DIVERSION SEGMENTS =           0.0000
       IRRIGATION PONDS  =           0.0000         IRRIGATION PONDS  =           0.0000
           GW IRRIGATION =           0.0000             GW IRRIGATION =           0.0000
           SW IRRIGATION =           0.0000             SW IRRIGATION =           0.0000
        SYSTEM LOSSES GW =           0.0000          SYSTEM LOSSES GW =           0.0000
        SYSTEM LOSSES SW =           0.0000          SYSTEM LOSSES SW =           0.0000

                TOTAL IN =   435047680.0000                  TOTAL IN =           0.0000

          OUT:                                     OUT:
          ----                                     ----
               AG WELLS  =           0.0000                 AG WELLS  =           0.0000
      DIVERSION SEGMENTS =           0.0000        DIVERSION SEGMENTS =           0.0000
       IRRIGATION PONDS  =           0.0000         IRRIGATION PONDS  =           0.0000
           GW IRRIGATION =   435047680.0000             GW IRRIGATION =           0.0000
           SW IRRIGATION =           0.0000             SW IRRIGATION =           0.0000
        SYSTEM LOSSES GW =           0.0000          SYSTEM LOSSES GW =           0.0000
        SYSTEM LOSSES SW =           0.0000          SYSTEM LOSSES SW =           0.0000

               TOTAL OUT =   435047680.0000                 TOTAL OUT =           0.0000

                IN - OUT =           0.0000                  IN - OUT =           0.0000

     PERCENT DISCREPANCY =           0.00         PERCENT DISCREPANCY =           0.00



1
  VOLUMETRIC BUDGET FOR ENTIRE MODEL AT END OF TIME STEP   30, STRESS PERIOD  11
  ------------------------------------------------------------------------------

     CUMULATIVE VOLUMES      L**3       RATES FOR THIS TIME STEP      L**3/T
     ------------------                 ------------------------

           IN:                                      IN:
           ---                                      ---
             STORAGE     =   510444896.0000               STORAGE     =          11.8132
       CONSTANT HEAD     =           0.0000         CONSTANT HEAD     =           0.0000
     HEAD DEP BOUNDS     =     7531935.5000       HEAD DEP BOUNDS     =           0.2854
      STREAM LEAKAGE     =   334145952.0000        STREAM LEAKAGE     =          11.8712
        UZF RECHARGE     =    37931548.0000          UZF RECHARGE     =       4.3020E-04
               GW ET     =           0.0000                 GW ET     =           0.0000
     SURFACE LEAKAGE     =           0.0000       SURFACE LEAKAGE     =           0.0000
           AG WELLS      =           0.0000             AG WELLS      =           0.0000

                TOTAL IN =   890054272.0000                  TOTAL IN =          23.9702

          OUT:                                     OUT:
          ----                                     ----
             STORAGE     =   163232512.0000               STORAGE     =          12.6808
       CONSTANT HEAD     =           0.0000         CONSTANT HEAD     =           0.0000
     HEAD DEP BOUNDS     =     7792458.0000       HEAD DEP BOUNDS     =           0.2929
      STREAM LEAKAGE     =   270226720.0000        STREAM LEAKAGE     =          10.9926
        UZF RECHARGE     =           0.0000          UZF RECHARGE     =           0.0000
               GW ET     =    13758110.0000                 GW ET     =       3.8942E-03
     SURFACE LEAKAGE     =           0.0000       SURFACE LEAKAGE     =           0.0000
           AG WELLS      =   435047680.0000             AG WELLS      =           0.0000

               TOTAL OUT =   890057472.0000                 TOTAL OUT =          23.9702

                IN - OUT =       -3200.0000                  IN - OUT =       3.8147E-06

     PERCENT DISCREPANCY =          -0.00         PERCENT DISCREPANCY =           0.00






         TIME SUMMARY AT END OF TIME STEP   30 IN STRESS PERIOD   11
                    SECONDS     MINUTES      HOURS       DAYS        YEARS
                    -----------------------------------------------------------
   TIME STEP LENGTH  87667.      1461.1      24.352      1.0147     2.77799E-03
 STRESS PERIOD TIME 2.63000E+06  43833.      730.56      30.440     8.33397E-02
         TOTAL TIME 2.63864E+07 4.39773E+05  7329.5      305.40     0.83613    
1
1
                            STRESS PERIOD NO.   12, LENGTH =   2630000.    
                            -----------------------------------------------

                              NUMBER OF TIME STEPS =    30

                               MULTIPLIER FOR DELT =     1.000

                            INITIAL TIME STEP SIZE =   87666.66    

 REUSING NON-PARAMETER GHB CELLS FROM LAST STRESS PERIOD

      2 GHB CELLS

 REUSING STREAM SEGMENT DATA FROM LAST STRESS PERIOD



            AREAL INFILTRATION RATE
 READING ON UNIT   19 WITH FORMAT: (FREE)              

            1           2           3           4           5           6           7           8           9          10
 ........................................................................................................................
   1   1.0000E-10  2.0000E-10   0.000       0.000       0.000       0.000       0.000       0.000       0.000       0.000    
   2   2.0000E-10  1.0000E-10  2.0000E-10   0.000       0.000      8.0000E-10  8.0000E-10  5.0000E-10   0.000       0.000    
   3    0.000      5.0000E-10  1.0000E-10  1.0000E-10  8.0000E-10  8.0000E-10  5.0000E-10  5.0000E-10   0.000       0.000    
   4   8.0000E-10  5.0000E-10  1.0000E-10  1.0000E-10  1.0000E-10  1.0000E-10  1.0000E-10  1.0000E-10  2.0000E-10   0.000    
   5   8.0000E-10  5.0000E-10  1.0000E-10  1.0000E-10  1.0000E-10  1.0000E-10  1.0000E-10  1.0000E-10  1.0000E-10  1.0000E-10
   6   8.0000E-10  5.0000E-10  5.0000E-10  2.0000E-10  2.0000E-10  1.0000E-10  1.0000E-10  1.0000E-10  1.0000E-10  5.0000E-10
   7   8.0000E-10  5.0000E-10  5.0000E-10  2.0000E-10  2.0000E-10  1.0000E-10  1.0000E-10  2.0000E-10  2.0000E-10   0.000    
   8    0.000      5.0000E-10  5.0000E-10  2.0000E-10  2.0000E-10  1.0000E-10  1.0000E-10  2.0000E-10  5.0000E-10   0.000    
   9    0.000      5.0000E-10  5.0000E-10  2.0000E-10  2.0000E-10  1.0000E-10  1.0000E-10  2.0000E-10  5.0000E-10   0.000    
  10    0.000      5.0000E-10  5.0000E-10  2.0000E-10  2.0000E-10  1.0000E-10  1.0000E-10  2.0000E-10  5.0000E-10  8.0000E-10
  11    0.000      1.0000E-10  1.0000E-10  1.0000E-10  1.0000E-10  1.0000E-10  1.0000E-10  2.0000E-10  5.0000E-10   0.000    
  12   1.0000E-10  1.0000E-10  1.0000E-10  1.0000E-10  1.0000E-10  1.0000E-10  1.0000E-10  1.0000E-10  2.0000E-10   0.000    
  13   1.0000E-10  1.0000E-10  2.0000E-10  2.0000E-10  2.0000E-10  2.0000E-10  2.0000E-10  1.0000E-10  1.0000E-10   0.000    
  14    0.000      2.0000E-10  5.0000E-10  5.0000E-10  5.0000E-10  5.0000E-10  5.0000E-10  2.0000E-10  1.0000E-10   0.000    
  15    0.000       0.000      8.0000E-10  8.0000E-10  8.0000E-10  8.0000E-10   0.000       0.000       0.000       0.000    

                  ET RATE =  5.000000E-10

 USING ET EXTINCTION DEPTH FROM PREVIOUS STRESS PERIOD. CURRENT PERIOD IS:      12

 USING EXTINCTION WATER CONTENT FROM PREVIOUS STRESS PERIOD. CURRENT PERIOD IS:      12

 USING AIR ENTRY PRESSURE FROM PREVIOUS STRESS PERIOD. CURRENT PERIOD IS:      12

 USING ROOT PRESSURE HEAD FROM PREVIOUS STRESS PERIOD. CURRENT PERIOD IS:      12

 USING ROOT ACTIVITY FROM PREVIOUS STRESS PERIOD. CURRENT PERIOD IS:      12

 PROCESSING AG STRESS PERIOD DATA

 READING AG STRESS PERIOD DATA

 READING IRRIGATION WELL

 NO IRRPOND OR REUSING IRRPOND DATA FROM LAST STRESS PERIOD

 END PROCESSING AG STRESS PERIOD DATA OPTIONS
 
 SOLVING FOR HEAD 
                                                   Max.-Head-Change                         Max.-Flux-Residual
  Residual-Control   Outer-Iter.   Inner-Iter.     Column Row Layer    Maximum-Head-Change  Column Row Layer    Maximum-Flux-Residual          L2-NORM 
          0                 1           2             4    7     1       0.3830231140E-01       4    7    1         0.2025168293E+01      0.4292481509E+01
          0                 2           2             4    7     1      -0.3723796711E-02       4    7    1        -0.2024099832E+00      0.4290074384E+00
          0                 3           2             4    7     1       0.2533864671E-03       4    7    1         0.1415806479E-01      0.3000753856E-01
          0                 4           1             4    7     1      -0.1006991187E-04       4    7    1        -0.5783432634E-03      0.1225807526E-02

    ------------------------------------------------
       NWT REQUIRED            4 OUTER ITERATIONS 
       AND A TOTAL OF          7 INNER ITERATIONS.
    ------------------------------------------------

 NO OUTPUT CONTROL FOR STRESS PERIOD   12   TIME STEP    1
 
 SOLVING FOR HEAD 
                                                   Max.-Head-Change                         Max.-Flux-Residual
  Residual-Control   Outer-Iter.   Inner-Iter.     Column Row Layer    Maximum-Head-Change  Column Row Layer    Maximum-Flux-Residual          L2-NORM 
          0                 1           2             4    7     1       0.3765210969E-01       4    7    1         0.1990123173E+01      0.4242347409E+01
          0                 2           2             4    7     1      -0.3660581981E-02       4    7    1        -0.1989072307E+00      0.4239805919E+00
          0                 3           2             4    7     1       0.2490849629E-03       4    7    1         0.1391305314E-01      0.2965468839E-01
          0                 4           1             4    7     1      -0.9898961086E-05       4    7    1        -0.5683345471E-03      0.1211279154E-02

    ------------------------------------------------
       NWT REQUIRED            4 OUTER ITERATIONS 
       AND A TOTAL OF          7 INNER ITERATIONS.
    ------------------------------------------------

 NO OUTPUT CONTROL FOR STRESS PERIOD   12   TIME STEP    2
 
 SOLVING FOR HEAD 
                                                   Max.-Head-Change                         Max.-Flux-Residual
  Residual-Control   Outer-Iter.   Inner-Iter.     Column Row Layer    Maximum-Head-Change  Column Row Layer    Maximum-Flux-Residual          L2-NORM 
          0                 1           2             4    7     1       0.3702480033E-01       4    7    1         0.1956345151E+01      0.4187678666E+01
          0                 2           2             4    7     1      -0.3599592984E-02       4    7    1        -0.1955311284E+00      0.4185287870E+00
          0                 3           2             4    7     1       0.2449349132E-03       4    7    1         0.1367690062E-01      0.2927415834E-01
          0                 4           1             4    7     1      -0.9734029286E-05       4    7    1        -0.5586877201E-03      0.1195809208E-02

    ------------------------------------------------
       NWT REQUIRED            4 OUTER ITERATIONS 
       AND A TOTAL OF          7 INNER ITERATIONS.
    ------------------------------------------------

 NO OUTPUT CONTROL FOR STRESS PERIOD   12   TIME STEP    3
 
 SOLVING FOR HEAD 
                                                   Max.-Head-Change                         Max.-Flux-Residual
  Residual-Control   Outer-Iter.   Inner-Iter.     Column Row Layer    Maximum-Head-Change  Column Row Layer    Maximum-Flux-Residual          L2-NORM 
          0                 1           2             4    7     1       0.3641896267E-01       4    7    1         0.1923754059E+01      0.4134526905E+01
          0                 2           2             4    7     1      -0.3540691588E-02       4    7    1        -0.1922736629E+00      0.4132247619E+00
          0                 3           2             4    7     1       0.2409269187E-03       4    7    1         0.1344904667E-01      0.2890385403E-01
          0                 4           1             4    7     1      -0.9574743228E-05       4    7    1        -0.5493799035E-03      0.1180659041E-02

    ------------------------------------------------
       NWT REQUIRED            4 OUTER ITERATIONS 
       AND A TOTAL OF          7 INNER ITERATIONS.
    ------------------------------------------------

 NO OUTPUT CONTROL FOR STRESS PERIOD   12   TIME STEP    4
 
 SOLVING FOR HEAD 
                                                   Max.-Head-Change                         Max.-Flux-Residual
  Residual-Control   Outer-Iter.   Inner-Iter.     Column Row Layer    Maximum-Head-Change  Column Row Layer    Maximum-Flux-Residual          L2-NORM 
          0                 1           2             4    7     1       0.3583314874E-01       4    7    1         0.1892268902E+01      0.4082785686E+01
          0                 2           2             4    7     1      -0.3483737016E-02       4    7    1        -0.1891267385E+00      0.4080607380E+00
          0                 3           2             4    7     1       0.2370513996E-03       4    7    1         0.1322892502E-01      0.2854332034E-01
          0                 4           1             4    7     1      -0.9420722300E-05       4    7    1        -0.5403879609E-03      0.1165923278E-02

    ------------------------------------------------
       NWT REQUIRED            4 OUTER ITERATIONS 
       AND A TOTAL OF          7 INNER ITERATIONS.
    ------------------------------------------------

 NO OUTPUT CONTROL FOR STRESS PERIOD   12   TIME STEP    5
 
 SOLVING FOR HEAD 
                                                   Max.-Head-Change                         Max.-Flux-Residual
  Residual-Control   Outer-Iter.   Inner-Iter.     Column Row Layer    Maximum-Head-Change  Column Row Layer    Maximum-Flux-Residual          L2-NORM 
          0                 1           2             4    7     1       0.3526641616E-01       4    7    1         0.1861836607E+01      0.4032359777E+01
          0                 2           2             4    7     1      -0.3428637589E-02       4    7    1        -0.1860850503E+00      0.4030064083E+00
          0                 3           2             4    7     1       0.2333021173E-03       4    7    1         0.1301616456E-01      0.2819046098E-01
          0                 4           1             4    7     1      -0.9271718519E-05       4    7    1        -0.5316967349E-03      0.1151693670E-02

    ------------------------------------------------
       NWT REQUIRED            4 OUTER ITERATIONS 
       AND A TOTAL OF          7 INNER ITERATIONS.
    ------------------------------------------------

 NO OUTPUT CONTROL FOR STRESS PERIOD   12   TIME STEP    6
 
 SOLVING FOR HEAD 
                                                   Max.-Head-Change                         Max.-Flux-Residual
  Residual-Control   Outer-Iter.   Inner-Iter.     Column Row Layer    Maximum-Head-Change  Column Row Layer    Maximum-Flux-Residual          L2-NORM 
          0                 1           2             4    7     1       0.3471751083E-01       4    7    1         0.1832386314E+01      0.3983172690E+01
          0                 2           2             4    7     1      -0.3375271529E-02       4    7    1        -0.1831415156E+00      0.3981161671E+00
          0                 3           2             4    7     1       0.2296707852E-03       4    7    1         0.1281026987E-01      0.2784879833E-01
          0                 4           1             4    7     1      -0.9127402503E-05       4    7    1        -0.5232859821E-03      0.1137775796E-02

    ------------------------------------------------
       NWT REQUIRED            4 OUTER ITERATIONS 
       AND A TOTAL OF          7 INNER ITERATIONS.
    ------------------------------------------------

 NO OUTPUT CONTROL FOR STRESS PERIOD   12   TIME STEP    7
 
 SOLVING FOR HEAD 
                                                   Max.-Head-Change                         Max.-Flux-Residual
  Residual-Control   Outer-Iter.   Inner-Iter.     Column Row Layer    Maximum-Head-Change  Column Row Layer    Maximum-Flux-Residual          L2-NORM 
          0                 1           2             4    7     1       0.3418553574E-01       4    7    1         0.1803867662E+01      0.3935338574E+01
          0                 2           2             4    7     1      -0.3323551464E-02       4    7    1        -0.1802911005E+00      0.3933401395E+00
          0                 3           2             4    7     1       0.2261514579E-03       4    7    1         0.1261088884E-01      0.2751512391E-01
          0                 4           1             4    7     1      -0.8987537435E-05       4    7    1        -0.5151413066E-03      0.1124145765E-02

    ------------------------------------------------
       NWT REQUIRED            4 OUTER ITERATIONS 
       AND A TOTAL OF          7 INNER ITERATIONS.
    ------------------------------------------------

 NO OUTPUT CONTROL FOR STRESS PERIOD   12   TIME STEP    8
 
 SOLVING FOR HEAD 
                                                   Max.-Head-Change                         Max.-Flux-Residual
  Residual-Control   Outer-Iter.   Inner-Iter.     Column Row Layer    Maximum-Head-Change  Column Row Layer    Maximum-Flux-Residual          L2-NORM 
          0                 1           2             4    7     1       0.3366952757E-01       4    7    1         0.1776226816E+01      0.3888587564E+01
          0                 2           2             4    7     1      -0.3273383789E-02       4    7    1        -0.1775284238E+00      0.3886715599E+00
          0                 3           2             4    7     1       0.2227377658E-03       4    7    1         0.1241764504E-01      0.2718893916E-01
          0                 4           1             4    7     1      -0.8851870840E-05       4    7    1        -0.5072473564E-03      0.1110809254E-02

    ------------------------------------------------
       NWT REQUIRED            4 OUTER ITERATIONS 
       AND A TOTAL OF          7 INNER ITERATIONS.
    ------------------------------------------------

 NO OUTPUT CONTROL FOR STRESS PERIOD   12   TIME STEP    9
 
 SOLVING FOR HEAD 
                                                   Max.-Head-Change                         Max.-Flux-Residual
  Residual-Control   Outer-Iter.   Inner-Iter.     Column Row Layer    Maximum-Head-Change  Column Row Layer    Maximum-Flux-Residual          L2-NORM 
          0                 1           2             4    7     1       0.3316873064E-01       4    7    1         0.1749421161E+01      0.3842876001E+01
          0                 2           2             4    7     1      -0.3224695028E-02       4    7    1        -0.1748492263E+00      0.3841062205E+00
          0                 3           2             4    7     1       0.2194247090E-03       4    7    1         0.1223024052E-01      0.2686993050E-01
          0                 4           1             4    7     1      -0.8720204124E-05       4    7    1        -0.4995919494E-03      0.1097844005E-02

    ------------------------------------------------
       NWT REQUIRED            4 OUTER ITERATIONS 
       AND A TOTAL OF          7 INNER ITERATIONS.
    ------------------------------------------------

 NO OUTPUT CONTROL FOR STRESS PERIOD   12   TIME STEP   10
 
 SOLVING FOR HEAD 
                                                   Max.-Head-Change                         Max.-Flux-Residual
  Residual-Control   Outer-Iter.   Inner-Iter.     Column Row Layer    Maximum-Head-Change  Column Row Layer    Maximum-Flux-Residual          L2-NORM 
          0                 1           2             4    7     1       0.3268217003E-01       4    7    1         0.1723396846E+01      0.3798129703E+01
          0                 2           2             4    7     1      -0.3177390460E-02       4    7    1        -0.1722481252E+00      0.3796369680E+00
          0                 3           2             4    7     1       0.2162058408E-03       4    7    1         0.1204829878E-01      0.2655752150E-01
          0                 4           1             4    7     1      -0.8592280897E-05       4    7    1        -0.4921597133E-03      0.1085037766E-02

    ------------------------------------------------
       NWT REQUIRED            4 OUTER ITERATIONS 
       AND A TOTAL OF          7 INNER ITERATIONS.
    ------------------------------------------------

 NO OUTPUT CONTROL FOR STRESS PERIOD   12   TIME STEP   11
 
 SOLVING FOR HEAD 
                                                   Max.-Head-Change                         Max.-Flux-Residual
  Residual-Control   Outer-Iter.   Inner-Iter.     Column Row Layer    Maximum-Head-Change  Column Row Layer    Maximum-Flux-Residual          L2-NORM 
          0                 1           2             4    7     1       0.3220921840E-01       4    7    1         0.1698117991E+01      0.3754329476E+01
          0                 2           2             4    7     1      -0.3131409015E-02       4    7    1        -0.1697215342E+00      0.3752619281E+00
          0                 3           2             4    7     1       0.2130770078E-03       4    7    1         0.1187156896E-01      0.2625174212E-01
          0                 4           1             4    7     1      -0.8467935720E-05       4    7    1        -0.4849403776E-03      0.1072584814E-02

    ------------------------------------------------
       NWT REQUIRED            4 OUTER ITERATIONS 
       AND A TOTAL OF          7 INNER ITERATIONS.
    ------------------------------------------------

 NO OUTPUT CONTROL FOR STRESS PERIOD   12   TIME STEP   12
 
 SOLVING FOR HEAD 
                                                   Max.-Head-Change                         Max.-Flux-Residual
  Residual-Control   Outer-Iter.   Inner-Iter.     Column Row Layer    Maximum-Head-Change  Column Row Layer    Maximum-Flux-Residual          L2-NORM 
          0                 1           2             4    7     1       0.3174915707E-01       4    7    1         0.1673544739E+01      0.3711411159E+01
          0                 2           2             4    7     1      -0.3086680770E-02       4    7    1        -0.1672654694E+00      0.3709744668E+00
          0                 3           2             4    7     1       0.2100334504E-03       4    7    1         0.1169977236E-01      0.2595224702E-01
          0                 4           1             4    7     1      -0.8346978979E-05       4    7    1        -0.4779225492E-03      0.1060401088E-02

    ------------------------------------------------
       NWT REQUIRED            4 OUTER ITERATIONS 
       AND A TOTAL OF          7 INNER ITERATIONS.
    ------------------------------------------------

 NO OUTPUT CONTROL FOR STRESS PERIOD   12   TIME STEP   13
 
 SOLVING FOR HEAD 
                                                   Max.-Head-Change                         Max.-Flux-Residual
  Residual-Control   Outer-Iter.   Inner-Iter.     Column Row Layer    Maximum-Head-Change  Column Row Layer    Maximum-Flux-Residual          L2-NORM 
          0                 1           2             4    7     1       0.3130118137E-01       4    7    1         0.1649632490E+01      0.3669345302E+01
          0                 2           2             4    7     1      -0.3043127548E-02       4    7    1        -0.1648754729E+00      0.3667720678E+00
          0                 3           2             4    7     1       0.2070698497E-03       4    7    1         0.1153259719E-01      0.2565831834E-01
          0                 4           1             4    7     1      -0.8229200681E-05       4    7    1        -0.4710935250E-03      0.1048378935E-02

    ------------------------------------------------
       NWT REQUIRED            4 OUTER ITERATIONS 
       AND A TOTAL OF          7 INNER ITERATIONS.
    ------------------------------------------------

 NO OUTPUT CONTROL FOR STRESS PERIOD   12   TIME STEP   14
 
 SOLVING FOR HEAD 
                                                   Max.-Head-Change                         Max.-Flux-Residual
  Residual-Control   Outer-Iter.   Inner-Iter.     Column Row Layer    Maximum-Head-Change  Column Row Layer    Maximum-Flux-Residual          L2-NORM 
          0                 1           2             4    7     1       0.3086508239E-01       4    7    1         0.1626368873E+01      0.3628099668E+01
          0                 2           2             4    7     1      -0.3000729036E-02       4    7    1        -0.1625503081E+00      0.3626513497E+00
          0                 3           2             4    7     1       0.2041848225E-03       4    7    1         0.1136995691E-01      0.2537023471E-01
          0                 4           1             4    7     1      -0.8114544643E-05       4    7    1        -0.4644497440E-03      0.1036624690E-02

    ------------------------------------------------
       NWT REQUIRED            4 OUTER ITERATIONS 
       AND A TOTAL OF          7 INNER ITERATIONS.
    ------------------------------------------------

 NO OUTPUT CONTROL FOR STRESS PERIOD   12   TIME STEP   15
 
 SOLVING FOR HEAD 
                                                   Max.-Head-Change                         Max.-Flux-Residual
  Residual-Control   Outer-Iter.   Inner-Iter.     Column Row Layer    Maximum-Head-Change  Column Row Layer    Maximum-Flux-Residual          L2-NORM 
          0                 1           2             4    7     1       0.3043986311E-01       4    7    1         0.1603699028E+01      0.3587646026E+01
          0                 2           2             4    7     1      -0.2959388299E-02       4    7    1        -0.1602844916E+00      0.3586233632E+00
          0                 3           2             4    7     1       0.2013717732E-03       4    7    1         0.1121146797E-01      0.2508848909E-01
          0                 4           1             4    7     1      -0.8002749642E-05       4    7    1        -0.4579755591E-03      0.1025134117E-02

    ------------------------------------------------
       NWT REQUIRED            4 OUTER ITERATIONS 
       AND A TOTAL OF          7 INNER ITERATIONS.
    ------------------------------------------------

 NO OUTPUT CONTROL FOR STRESS PERIOD   12   TIME STEP   16
 
 SOLVING FOR HEAD 
                                                   Max.-Head-Change                         Max.-Flux-Residual
  Residual-Control   Outer-Iter.   Inner-Iter.     Column Row Layer    Maximum-Head-Change  Column Row Layer    Maximum-Flux-Residual          L2-NORM 
          0                 1           2             4    7     1       0.3002539772E-01       4    7    1         0.1581615292E+01      0.3547924148E+01
          0                 2           2             4    7     1      -0.2919093102E-02       4    7    1        -0.1580772574E+00      0.3546405625E+00
          0                 3           2             4    7     1       0.1986298695E-03       4    7    1         0.1105707682E-01      0.2481011010E-01
          0                 4           1             4    7     1      -0.7893782059E-05       4    7    1        -0.4516687727E-03      0.1013760491E-02

    ------------------------------------------------
       NWT REQUIRED            4 OUTER ITERATIONS 
       AND A TOTAL OF          7 INNER ITERATIONS.
    ------------------------------------------------

 NO OUTPUT CONTROL FOR STRESS PERIOD   12   TIME STEP   17
 
 SOLVING FOR HEAD 
                                                   Max.-Head-Change                         Max.-Flux-Residual
  Residual-Control   Outer-Iter.   Inner-Iter.     Column Row Layer    Maximum-Head-Change  Column Row Layer    Maximum-Flux-Residual          L2-NORM 
          0                 1           2             4    7     1       0.2962090068E-01       4    7    1         0.1560074448E+01      0.3508944253E+01
          0                 2           2             4    7     1      -0.2879767073E-02       4    7    1        -0.1559242858E+00      0.3507456046E+00
          0                 3           2             4    7     1       0.1959539138E-03       4    7    1         0.1090648125E-01      0.2453768992E-01
          0                 4           1             4    7     1      -0.7787435586E-05       4    7    1        -0.4455170329E-03      0.1002602828E-02

    ------------------------------------------------
       NWT REQUIRED            4 OUTER ITERATIONS 
       AND A TOTAL OF          7 INNER ITERATIONS.
    ------------------------------------------------

 NO OUTPUT CONTROL FOR STRESS PERIOD   12   TIME STEP   18
 
 SOLVING FOR HEAD 
                                                   Max.-Head-Change                         Max.-Flux-Residual
  Residual-Control   Outer-Iter.   Inner-Iter.     Column Row Layer    Maximum-Head-Change  Column Row Layer    Maximum-Flux-Residual          L2-NORM 
          0                 1           2             4    7     1       0.2922604451E-01       4    7    1         0.1539057784E+01      0.3470664261E+01
          0                 2           2             4    7     1      -0.2841378370E-02       4    7    1        -0.1538237065E+00      0.3469205747E+00
          0                 3           2             4    7     1       0.1933417397E-03       4    7    1         0.1075955047E-01      0.2427025312E-01
          0                 4           1             4    7     1      -0.7683623532E-05       4    7    1        -0.4395149999E-03      0.9916785184E-03

    ------------------------------------------------
       NWT REQUIRED            4 OUTER ITERATIONS 
       AND A TOTAL OF          7 INNER ITERATIONS.
    ------------------------------------------------

 NO OUTPUT CONTROL FOR STRESS PERIOD   12   TIME STEP   19
 
 SOLVING FOR HEAD 
                                                   Max.-Head-Change                         Max.-Flux-Residual
  Residual-Control   Outer-Iter.   Inner-Iter.     Column Row Layer    Maximum-Head-Change  Column Row Layer    Maximum-Flux-Residual          L2-NORM 
          0                 1           2             4    7     1       0.2884051779E-01       4    7    1         0.1518548322E+01      0.3433065176E+01
          0                 2           2             4    7     1      -0.2803896716E-02       4    7    1        -0.1517738225E+00      0.3431632994E+00
          0                 3           2             4    7     1       0.1907912868E-03       4    7    1         0.1061616574E-01      0.2400746024E-01
          0                 4           1             4    7     1      -0.7582264502E-05       4    7    1        -0.4336578368E-03      0.9809720879E-03

    ------------------------------------------------
       NWT REQUIRED            4 OUTER ITERATIONS 
       AND A TOTAL OF          7 INNER ITERATIONS.
    ------------------------------------------------

 NO OUTPUT CONTROL FOR STRESS PERIOD   12   TIME STEP   20
 
 SOLVING FOR HEAD 
                                                   Max.-Head-Change                         Max.-Flux-Residual
  Residual-Control   Outer-Iter.   Inner-Iter.     Column Row Layer    Maximum-Head-Change  Column Row Layer    Maximum-Flux-Residual          L2-NORM 
          0                 1           2             4    7     1       0.2846363242E-01       4    7    1         0.1498507894E+01      0.3396118285E+01
          0                 2           2             4    7     1      -0.2767255208E-02       4    7    1        -0.1497708189E+00      0.3394712079E+00
          0                 3           2             4    7     1       0.1882980028E-03       4    7    1         0.1047606024E-01      0.2374921041E-01
          0                 4           1             4    7     1      -0.7483177515E-05       4    7    1        -0.4279346058E-03      0.9703512012E-03

    ------------------------------------------------
       NWT REQUIRED            4 OUTER ITERATIONS 
       AND A TOTAL OF          7 INNER ITERATIONS.
    ------------------------------------------------

 NO OUTPUT CONTROL FOR STRESS PERIOD   12   TIME STEP   21
 
 SOLVING FOR HEAD 
                                                   Max.-Head-Change                         Max.-Flux-Residual
  Residual-Control   Outer-Iter.   Inner-Iter.     Column Row Layer    Maximum-Head-Change  Column Row Layer    Maximum-Flux-Residual          L2-NORM 
          0                 1           2             4    7     1       0.2809527986E-01       4    7    1         0.1478930186E+01      0.3359813647E+01
          0                 2           2             4    7     1      -0.2731443294E-02       4    7    1        -0.1478140643E+00      0.3358431799E+00
          0                 3           2             4    7     1       0.1858611698E-03       4    7    1         0.1033918981E-01      0.2349556379E-01
          0                 4           1             4    7     1      -0.7386334480E-05       4    7    1        -0.4223435640E-03      0.9600444795E-03

    ------------------------------------------------
       NWT REQUIRED            4 OUTER ITERATIONS 
       AND A TOTAL OF          7 INNER ITERATIONS.
    ------------------------------------------------

 NO OUTPUT CONTROL FOR STRESS PERIOD   12   TIME STEP   22
 
 SOLVING FOR HEAD 
                                                   Max.-Head-Change                         Max.-Flux-Residual
  Residual-Control   Outer-Iter.   Inner-Iter.     Column Row Layer    Maximum-Head-Change  Column Row Layer    Maximum-Flux-Residual          L2-NORM 
          0                 1           2             4    7     1       0.2773509085E-01       4    7    1         0.1459794889E+01      0.3324117110E+01
          0                 2           2             4    7     1      -0.2696425072E-02       4    7    1        -0.1459015290E+00      0.3322757798E+00
          0                 3           2             4    7     1       0.1834783439E-03       4    7    1         0.1020541243E-01      0.2324625280E-01
          0                 4           1             4    7     1      -0.7291637308E-05       4    7    1        -0.4168788496E-03      0.9502750317E-03

    ------------------------------------------------
       NWT REQUIRED            4 OUTER ITERATIONS 
       AND A TOTAL OF          7 INNER ITERATIONS.
    ------------------------------------------------

 NO OUTPUT CONTROL FOR STRESS PERIOD   12   TIME STEP   23
 
 SOLVING FOR HEAD 
                                                   Max.-Head-Change                         Max.-Flux-Residual
  Residual-Control   Outer-Iter.   Inner-Iter.     Column Row Layer    Maximum-Head-Change  Column Row Layer    Maximum-Flux-Residual          L2-NORM 
          0                 1           2             4    7     1       0.2738259065E-01       4    7    1         0.1441075515E+01      0.3289032740E+01
          0                 2           2             4    7     1      -0.2662154386E-02       4    7    1        -0.1440305654E+00      0.3287695770E+00
          0                 3           2             4    7     1       0.1811463846E-03       4    7    1         0.1007454292E-01      0.2300086539E-01
          0                 4           1             4    7     1      -0.7198961777E-05       4    7    1        -0.4115329180E-03      0.9398661110E-03

    ------------------------------------------------
       NWT REQUIRED            4 OUTER ITERATIONS 
       AND A TOTAL OF          7 INNER ITERATIONS.
    ------------------------------------------------

 NO OUTPUT CONTROL FOR STRESS PERIOD   12   TIME STEP   24
 
 SOLVING FOR HEAD 
                                                   Max.-Head-Change                         Max.-Flux-Residual
  Residual-Control   Outer-Iter.   Inner-Iter.     Column Row Layer    Maximum-Head-Change  Column Row Layer    Maximum-Flux-Residual          L2-NORM 
          0                 1           2             4    7     1       0.2703759820E-01       4    7    1         0.1422762135E+01      0.3254529353E+01
          0                 2           2             4    7     1      -0.2628613631E-02       4    7    1        -0.1422001810E+00      0.3253213659E+00
          0                 3           2             4    7     1       0.1788640948E-03       4    7    1         0.9946511884E-02      0.2275971554E-01
          0                 4           1             4    7     1      -0.7108260570E-05       4    7    1        -0.4063029464E-03      0.9300248599E-03

    ------------------------------------------------
       NWT REQUIRED            4 OUTER ITERATIONS 
       AND A TOTAL OF          7 INNER ITERATIONS.
    ------------------------------------------------

 NO OUTPUT CONTROL FOR STRESS PERIOD   12   TIME STEP   25
 
 SOLVING FOR HEAD 
                                                   Max.-Head-Change                         Max.-Flux-Residual
  Residual-Control   Outer-Iter.   Inner-Iter.     Column Row Layer    Maximum-Head-Change  Column Row Layer    Maximum-Flux-Residual          L2-NORM 
          0                 1           2             4    7     1       0.2669967443E-01       4    7    1         0.1404830674E+01      0.3220584696E+01
          0                 2           2             4    7     1      -0.2595760118E-02       4    7    1        -0.1404079695E+00      0.3219289125E+00
          0                 3           2             4    7     1       0.1766285689E-03       4    7    1         0.9821150982E-02      0.2252238343E-01
          0                 4           1             4    7     1      -0.7019417176E-05       4    7    1        -0.4011820442E-03      0.9202905059E-03

    ------------------------------------------------
       NWT REQUIRED            4 OUTER ITERATIONS 
       AND A TOTAL OF          7 INNER ITERATIONS.
    ------------------------------------------------

 NO OUTPUT CONTROL FOR STRESS PERIOD   12   TIME STEP   26
 
 SOLVING FOR HEAD 
                                                   Max.-Head-Change                         Max.-Flux-Residual
  Residual-Control   Outer-Iter.   Inner-Iter.     Column Row Layer    Maximum-Head-Change  Column Row Layer    Maximum-Flux-Residual          L2-NORM 
          0                 1           2             4    7     1       0.2636881156E-01       4    7    1         0.1387280399E+01      0.3187201074E+01
          0                 2           2             4    7     1      -0.2563593090E-02       4    7    1        -0.1386538575E+00      0.3185924738E+00
          0                 3           2             4    7     1       0.1744397555E-03       4    7    1         0.9698455066E-02      0.2228900548E-01
          0                 4           1             4    7     1      -0.6932430906E-05       4    7    1        -0.3961700277E-03      0.9107728149E-03

    ------------------------------------------------
       NWT REQUIRED            4 OUTER ITERATIONS 
       AND A TOTAL OF          7 INNER ITERATIONS.
    ------------------------------------------------

 NO OUTPUT CONTROL FOR STRESS PERIOD   12   TIME STEP   27
 
 SOLVING FOR HEAD 
                                                   Max.-Head-Change                         Max.-Flux-Residual
  Residual-Control   Outer-Iter.   Inner-Iter.     Column Row Layer    Maximum-Head-Change  Column Row Layer    Maximum-Flux-Residual          L2-NORM 
          0                 1           2             4    7     1       0.2604460139E-01       4    7    1         0.1370088875E+01      0.3154350522E+01
          0                 2           2             4    7     1      -0.2532072861E-02       4    7    1        -0.1369356027E+00      0.3153092885E+00
          0                 3           2             4    7     1       0.1722949543E-03       4    7    1         0.9578267313E-02      0.2205940802E-01
          0                 4           1             4    7     1      -0.6847193654E-05       4    7    1        -0.3912604575E-03      0.9014055131E-03

    ------------------------------------------------
       NWT REQUIRED            4 OUTER ITERATIONS 
       AND A TOTAL OF          7 INNER ITERATIONS.
    ------------------------------------------------

 NO OUTPUT CONTROL FOR STRESS PERIOD   12   TIME STEP   28
 
 SOLVING FOR HEAD 
                                                   Max.-Head-Change                         Max.-Flux-Residual
  Residual-Control   Outer-Iter.   Inner-Iter.     Column Row Layer    Maximum-Head-Change  Column Row Layer    Maximum-Flux-Residual          L2-NORM 
          0                 1           2             4    7     1       0.2572679168E-01       4    7    1         0.1353242281E+01      0.3122023920E+01
          0                 2           2             4    7     1      -0.2501174906E-02       4    7    1        -0.1352518237E+00      0.3120784161E+00
          0                 3           2             4    7     1       0.1701924958E-03       4    7    1         0.9460491073E-02      0.2183342317E-01
          0                 4           1             4    7     1      -0.6763638762E-05       4    7    1        -0.3864493870E-03      0.8921681746E-03

    ------------------------------------------------
       NWT REQUIRED            4 OUTER ITERATIONS 
       AND A TOTAL OF          7 INNER ITERATIONS.
    ------------------------------------------------

 NO OUTPUT CONTROL FOR STRESS PERIOD   12   TIME STEP   29
 
 SOLVING FOR HEAD 
                                                   Max.-Head-Change                         Max.-Flux-Residual
  Residual-Control   Outer-Iter.   Inner-Iter.     Column Row Layer    Maximum-Head-Change  Column Row Layer    Maximum-Flux-Residual          L2-NORM 
          0                 1           2             4    7     1       0.2541514564E-01       4    7    1         0.1336727539E+01      0.3091326587E+01
          0                 2           2             4    7     1      -0.2470876203E-02       4    7    1        -0.1336012133E+00      0.3090071468E+00
          0                 3           2             4    7     1       0.1681308144E-03       4    7    1         0.9345034921E-02      0.2161827032E-01
          0                 4           1             4    7     1      -0.6681704867E-05       4    7    1        -0.3817331103E-03      0.8833512794E-03

    ------------------------------------------------
       NWT REQUIRED            4 OUTER ITERATIONS 
       AND A TOTAL OF          7 INNER ITERATIONS.
    ------------------------------------------------

 NO OUTPUT CONTROL FOR STRESS PERIOD   12   TIME STEP   30



 STREAM LISTING     PERIOD     12   STEP       30

 LAYER ROW COL. STREAM  RCH.  FLOW INTO     FLOW TO   FLOW OUT OF   OVRLND.     DIRECT     STREAM       STREAM     STREAM     STREAM   STREAMBED  STREAMBED
                SEG.NO.  NO.  STRM. RCH.    AQUIFER    STRM. RCH.    RUNOFF     PRECIP       ET          HEAD       DEPTH      WIDTH   CONDCTNC.   GRADIENT

   1    1    1     1     1    2.5441E+01  2.4717E-01   2.5194E+01  0.000E+00  0.000E+00  0.000E+00  1.09423E+03  1.185E+00  1.313E+01  5.906E-02  1.395E+00
   1    2    2     1     2    2.5194E+01  3.8224E-01   2.4811E+01  0.000E+00  0.000E+00  0.000E+00  1.08924E+03  1.180E+00  1.306E+01  9.144E-02  1.393E+00
   1    3    3     1     3    2.4811E+01  3.2545E-01   2.4486E+01  0.000E+00  0.000E+00  0.000E+00  1.08359E+03  1.175E+00  1.299E+01  7.795E-02  1.392E+00
   1    3    4     1     4    2.4486E+01  2.9925E-01   2.4187E+01  0.000E+00  0.000E+00  0.000E+00  1.07858E+03  1.170E+00  1.293E+01  7.176E-02  1.390E+00
   1    4    5     2     1    2.2187E+01  3.2130E-01   2.1865E+01  0.000E+00  0.000E+00  0.000E+00  1.07305E+03  1.119E+00  1.200E+01  7.800E-02  1.373E+00
   1    5    6     2     2    2.1865E+01  2.4663E-01   2.1619E+01  0.000E+00  0.000E+00  0.000E+00  1.06762E+03  1.111E+00  1.200E+01  6.000E-02  1.370E+00
   1    6    6     2     3    2.1619E+01  2.4618E-01   2.1373E+01  0.000E+00  0.000E+00  0.000E+00  1.06290E+03  1.103E+00  1.200E+01  6.000E-02  1.368E+00
   1    7    6     2     4    2.1373E+01  2.4572E-01   2.1127E+01  0.000E+00  0.000E+00  0.000E+00  1.05817E+03  1.095E+00  1.200E+01  6.000E-02  1.365E+00
   1    8    6     2     5    2.1127E+01  2.4527E-01   2.0882E+01  0.000E+00  0.000E+00  0.000E+00  1.05345E+03  1.088E+00  1.200E+01  6.000E-02  1.363E+00
   1    3    5     3     1    2.0000E+00  2.8252E-01   1.7175E+00  0.000E+00  0.000E+00  0.000E+00  1.07555E+03  1.909E+00  9.636E+00  7.227E-02  1.955E+00
   1    3    6     3     2    1.7175E+00  2.4905E-01   1.4684E+00  0.000E+00  0.000E+00  0.000E+00  1.07264E+03  1.727E+00  8.909E+00  6.682E-02  1.864E+00
   1    3    7     3     3    1.4684E+00  1.9718E-01   1.2712E+00  0.000E+00  0.000E+00  0.000E+00  1.06987E+03  1.555E+00  8.218E+00  5.547E-02  1.777E+00
   1    4    8     3     4    1.2712E+00  2.2567E-01   1.0456E+00  0.000E+00  0.000E+00  0.000E+00  1.06682E+03  1.364E+00  7.455E+00  6.709E-02  1.682E+00
   1    5    8     3     5    1.0456E+00  1.5790E-01   8.8768E-01  0.000E+00  0.000E+00  0.000E+00  1.06362E+03  1.164E+00  6.655E+00  4.991E-02  1.582E+00
   1    6    8     3     6    8.8768E-01  5.5980E-02   8.3170E-01  0.000E+00  0.000E+00  0.000E+00  1.06158E+03  1.036E+00  6.145E+00  1.844E-02  1.518E+00
   1    5   10     4     1    1.0000E+01  9.0919E-02   9.9091E+00  0.000E+00  0.000E+00  0.000E+00  1.07836E+03  6.368E-01  1.000E+01  2.500E-02  1.212E+00
   1    5    9     4     2    9.9091E+00  1.8158E-01   9.7275E+00  0.000E+00  0.000E+00  0.000E+00  1.07154E+03  6.315E-01  1.000E+01  5.000E-02  1.211E+00
   1    6    8     4     3    9.7275E+00  1.2689E-01   9.6006E+00  0.000E+00  0.000E+00  0.000E+00  1.06381E+03  6.256E-01  1.000E+01  3.500E-02  1.209E+00
   1    6    8     5     1    1.0432E+01  2.2686E-01   1.0205E+01  0.000E+00  0.000E+00  0.000E+00  1.05868E+03  6.790E-01  1.542E+01  6.166E-02  1.226E+00
   1    7    7     5     2    1.0205E+01  2.7894E-01   9.9265E+00  0.000E+00  0.000E+00  0.000E+00  1.05417E+03  6.732E-01  1.519E+01  7.594E-02  1.224E+00
   1    8    7     5     3    9.9265E+00  1.9221E-01   9.7343E+00  0.000E+00  0.000E+00  0.000E+00  1.04992E+03  6.676E-01  1.497E+01  5.241E-02  1.223E+00
   1    8    6     5     4    9.7343E+00  1.3577E-01   9.5985E+00  0.000E+00  0.000E+00  0.000E+00  1.04691E+03  6.637E-01  1.482E+01  3.706E-02  1.221E+00
   1    9    6     6     1    3.0480E+01  2.6230E-01   3.0218E+01  0.000E+00  0.000E+00  0.000E+00  1.04410E+03  1.372E+00  1.200E+01  6.000E-02  1.457E+00
   1   10    7     6     2    3.0218E+01  2.6187E-01   2.9956E+01  0.000E+00  0.000E+00  0.000E+00  1.03955E+03  1.365E+00  1.200E+01  6.000E-02  1.455E+00
   1   11    7     6     3    2.9956E+01  2.6145E-01   2.9695E+01  0.000E+00  0.000E+00  0.000E+00  1.03499E+03  1.357E+00  1.200E+01  6.000E-02  1.452E+00
   1   12    7     6     4    2.9695E+01  2.6102E-01   2.9434E+01  0.000E+00  0.000E+00  0.000E+00  1.03044E+03  1.350E+00  1.200E+01  6.000E-02  1.450E+00
   1   13    7     6     5    2.9434E+01  1.3406E-03   2.9432E+01  0.000E+00  0.000E+00  0.000E+00  1.02726E+03  1.347E+00  1.200E+01  2.400E-02  1.862E-02
   1   14    9     7     1    1.5000E+02  1.3299E+00   1.4867E+02  0.000E+00  0.000E+00  0.000E+00  1.03987E+03  2.288E+00  5.529E+01  5.593E-01  7.926E-01
   1   13    8     7     2    1.4867E+02  1.7967E+00   1.4687E+02  0.000E+00  0.000E+00  0.000E+00  1.03478E+03  2.279E+00  5.526E+01  6.148E-01  9.742E-01
   1   13    7     7     3    1.4687E+02  1.3908E+00   1.4548E+02  0.000E+00  0.000E+00  0.000E+00  1.02969E+03  2.271E+00  5.522E+01  5.585E-01  8.301E-01
   1   13    6     8     1    1.7491E+02  8.6520E-01   1.7405E+02  0.000E+00  0.000E+00  0.000E+00  1.02486E+03  2.981E+00  4.323E+01  4.405E-01  6.547E-01
   1   13    5     8     2    1.7405E+02  1.2316E-01   1.7393E+02  0.000E+00  0.000E+00  0.000E+00  1.01860E+03  2.978E+00  4.318E+01  4.400E-01  9.330E-02
   1   13    4     8     3    1.7393E+02 -2.6107E+00   1.7654E+02  0.000E+00  0.000E+00  0.000E+00  1.01236E+03  2.986E+00  4.330E+01  4.412E+00 -1.972E-01
   1   13    3     8     4    1.7654E+02 -3.7602E+00   1.8030E+02  0.000E+00  0.000E+00  0.000E+00  1.00613E+03  3.006E+00  4.359E+01  4.442E+00 -2.822E-01
   1   13    2     8     5    1.8030E+02 -2.6294E+00   1.8293E+02  0.000E+00  0.000E+00  0.000E+00  9.99901E+02  3.026E+00  4.388E+01  4.472E+00 -1.960E-01
   1   13    1     8     6    1.8293E+02 -2.0230E+00   1.8495E+02  0.000E+00  0.000E+00  0.000E+00  9.94916E+02  3.041E+00  4.409E+01  2.696E+00 -2.501E-01





UNSATURATED ZONE PACKAGE VOLUMETRIC BUDGET FOR  TIME STEP    30 STRESS PERIOD   12
  ------------------------------------------------------------------------------



     CUMULATIVE VOLUMES      L**3       RATES FOR THIS TIME STEP      L**3/T
     ------------------                 ------------------------

           IN:                                      IN:
           ---                                      ---
        INFILTRATION =   459639459.1456          INFILTRATION =           0.8475

          OUT:                                     OUT:
          ----                                     ----
              UZF ET =   421377002.6598                UZF ET =           0.7500
        UZF RECHARGE =    37932499.6238          UZF RECHARGE =           0.0003

            IN - OUT =      329956.8620              IN - OUT =       9.7192E-02

          STORAGE:                                 STORAGE:
          --------                                 --------
      STORAGE CHANGE =      329957.3438        STORAGE CHANGE =       9.7192E-02

 PERCENT DISCREPANCY IS DIFFERENCE BETWEEN IN-OUT MINUS CHANGE IN STORAGE
 DIVIDED BY THE AVERAGE OF IN AND OUT TIMES 100

 PERCENT DISCREPANCY =           0.00     PERCENT DISCREPANCY =           0.00






1
  VOLUMETRIC BUDGET FOR AGRICULTURAL FIELDS AT  END OF TIME STEP   30, STRESS PERIOD  12
  ------------------------------------------------------------------------------

     CUMULATIVE VOLUMES      L**3       RATES FOR THIS TIME STEP      L**3/T
     ------------------                 ------------------------

           IN:                                      IN:
           ---                                      ---
               AG WELLS  =   435047680.0000                 AG WELLS  =           0.0000
      DIVERSION SEGMENTS =           0.0000        DIVERSION SEGMENTS =           0.0000
       IRRIGATION PONDS  =           0.0000         IRRIGATION PONDS  =           0.0000
           GW IRRIGATION =           0.0000             GW IRRIGATION =           0.0000
           SW IRRIGATION =           0.0000             SW IRRIGATION =           0.0000
        SYSTEM LOSSES GW =           0.0000          SYSTEM LOSSES GW =           0.0000
        SYSTEM LOSSES SW =           0.0000          SYSTEM LOSSES SW =           0.0000

                TOTAL IN =   435047680.0000                  TOTAL IN =           0.0000

          OUT:                                     OUT:
          ----                                     ----
               AG WELLS  =           0.0000                 AG WELLS  =           0.0000
      DIVERSION SEGMENTS =           0.0000        DIVERSION SEGMENTS =           0.0000
       IRRIGATION PONDS  =           0.0000         IRRIGATION PONDS  =           0.0000
           GW IRRIGATION =   435047680.0000             GW IRRIGATION =           0.0000
           SW IRRIGATION =           0.0000             SW IRRIGATION =           0.0000
        SYSTEM LOSSES GW =           0.0000          SYSTEM LOSSES GW =           0.0000
        SYSTEM LOSSES SW =           0.0000          SYSTEM LOSSES SW =           0.0000

               TOTAL OUT =   435047680.0000                 TOTAL OUT =           0.0000

                IN - OUT =           0.0000                  IN - OUT =           0.0000

     PERCENT DISCREPANCY =           0.00         PERCENT DISCREPANCY =           0.00



1
  VOLUMETRIC BUDGET FOR ENTIRE MODEL AT END OF TIME STEP   30, STRESS PERIOD  12
  ------------------------------------------------------------------------------

     CUMULATIVE VOLUMES      L**3       RATES FOR THIS TIME STEP      L**3/T
     ------------------                 ------------------------

           IN:                                      IN:
           ---                                      ---
             STORAGE     =   538245504.0000               STORAGE     =           9.0418
       CONSTANT HEAD     =           0.0000         CONSTANT HEAD     =           0.0000
     HEAD DEP BOUNDS     =     8282453.0000       HEAD DEP BOUNDS     =           0.2854
      STREAM LEAKAGE     =   364423264.0000        STREAM LEAKAGE     =          11.5144
        UZF RECHARGE     =    37932504.0000          UZF RECHARGE     =       3.0756E-04
               GW ET     =           0.0000                 GW ET     =           0.0000
     SURFACE LEAKAGE     =           0.0000       SURFACE LEAKAGE     =           0.0000
           AG WELLS      =           0.0000             AG WELLS      =           0.0000

                TOTAL IN =   948883648.0000                  TOTAL IN =          20.8419

          OUT:                                     OUT:
          ----                                     ----
             STORAGE     =   191830992.0000               STORAGE     =           9.5271
       CONSTANT HEAD     =           0.0000         CONSTANT HEAD     =           0.0000
     HEAD DEP BOUNDS     =     8560185.0000       HEAD DEP BOUNDS     =           0.2913
      STREAM LEAKAGE     =   299689856.0000        STREAM LEAKAGE     =          11.0234
        UZF RECHARGE     =           0.0000          UZF RECHARGE     =           0.0000
               GW ET     =    13758168.0000                 GW ET     =           0.0000
     SURFACE LEAKAGE     =           0.0000       SURFACE LEAKAGE     =           0.0000
           AG WELLS      =   435047680.0000             AG WELLS      =           0.0000

               TOTAL OUT =   948886912.0000                 TOTAL OUT =          20.8419

                IN - OUT =       -3264.0000                  IN - OUT =       5.7220E-06

     PERCENT DISCREPANCY =          -0.00         PERCENT DISCREPANCY =           0.00






         TIME SUMMARY AT END OF TIME STEP   30 IN STRESS PERIOD   12
                    SECONDS     MINUTES      HOURS       DAYS        YEARS
                    -----------------------------------------------------------
   TIME STEP LENGTH  87667.      1461.1      24.352      1.0147     2.77799E-03
 STRESS PERIOD TIME 2.63000E+06  43833.      730.56      30.440     8.33397E-02
         TOTAL TIME 2.90163E+07 4.83606E+05  8060.1      335.84     0.91947    
1
1
                            STRESS PERIOD NO.   13, LENGTH =   2630000.    
                            -----------------------------------------------

                              NUMBER OF TIME STEPS =    30

                               MULTIPLIER FOR DELT =     1.000

                            INITIAL TIME STEP SIZE =   87666.66    

 REUSING NON-PARAMETER GHB CELLS FROM LAST STRESS PERIOD

      2 GHB CELLS

 REUSING STREAM SEGMENT DATA FROM LAST STRESS PERIOD



            AREAL INFILTRATION RATE
 READING ON UNIT   19 WITH FORMAT: (FREE)              

            1           2           3           4           5           6           7           8           9          10
 ........................................................................................................................
   1   1.0000E-10  2.0000E-10   0.000       0.000       0.000       0.000       0.000       0.000       0.000       0.000    
   2   2.0000E-10  1.0000E-10  2.0000E-10   0.000       0.000      8.0000E-10  8.0000E-10  5.0000E-10   0.000       0.000    
   3    0.000      5.0000E-10  1.0000E-10  1.0000E-10  8.0000E-10  8.0000E-10  5.0000E-10  5.0000E-10   0.000       0.000    
   4   8.0000E-10  5.0000E-10  1.0000E-10  1.0000E-10  1.0000E-10  1.0000E-10  1.0000E-10  1.0000E-10  2.0000E-10   0.000    
   5   8.0000E-10  5.0000E-10  1.0000E-10  1.0000E-10  1.0000E-10  1.0000E-10  1.0000E-10  1.0000E-10  1.0000E-10  1.0000E-10
   6   8.0000E-10  5.0000E-10  5.0000E-10  2.0000E-10  2.0000E-10  1.0000E-10  1.0000E-10  1.0000E-10  1.0000E-10  5.0000E-10
   7   8.0000E-10  5.0000E-10  5.0000E-10  2.0000E-10  2.0000E-10  1.0000E-10  1.0000E-10  2.0000E-10  2.0000E-10   0.000    
   8    0.000      5.0000E-10  5.0000E-10  2.0000E-10  2.0000E-10  1.0000E-10  1.0000E-10  2.0000E-10  5.0000E-10   0.000    
   9    0.000      5.0000E-10  5.0000E-10  2.0000E-10  2.0000E-10  1.0000E-10  1.0000E-10  2.0000E-10  5.0000E-10   0.000    
  10    0.000      5.0000E-10  5.0000E-10  2.0000E-10  2.0000E-10  1.0000E-10  1.0000E-10  2.0000E-10  5.0000E-10  8.0000E-10
  11    0.000      1.0000E-10  1.0000E-10  1.0000E-10  1.0000E-10  1.0000E-10  1.0000E-10  2.0000E-10  5.0000E-10   0.000    
  12   1.0000E-10  1.0000E-10  1.0000E-10  1.0000E-10  1.0000E-10  1.0000E-10  1.0000E-10  1.0000E-10  2.0000E-10   0.000    
  13   1.0000E-10  1.0000E-10  2.0000E-10  2.0000E-10  2.0000E-10  2.0000E-10  2.0000E-10  1.0000E-10  1.0000E-10   0.000    
  14    0.000      2.0000E-10  5.0000E-10  5.0000E-10  5.0000E-10  5.0000E-10  5.0000E-10  2.0000E-10  1.0000E-10   0.000    
  15    0.000       0.000      8.0000E-10  8.0000E-10  8.0000E-10  8.0000E-10   0.000       0.000       0.000       0.000    

                  ET RATE =  5.000000E-10

 USING ET EXTINCTION DEPTH FROM PREVIOUS STRESS PERIOD. CURRENT PERIOD IS:      13

 USING EXTINCTION WATER CONTENT FROM PREVIOUS STRESS PERIOD. CURRENT PERIOD IS:      13

 USING AIR ENTRY PRESSURE FROM PREVIOUS STRESS PERIOD. CURRENT PERIOD IS:      13

 USING ROOT PRESSURE HEAD FROM PREVIOUS STRESS PERIOD. CURRENT PERIOD IS:      13

 USING ROOT ACTIVITY FROM PREVIOUS STRESS PERIOD. CURRENT PERIOD IS:      13

 PROCESSING AG STRESS PERIOD DATA

 READING AG STRESS PERIOD DATA

 READING IRRIGATION WELL

 NO IRRPOND OR REUSING IRRPOND DATA FROM LAST STRESS PERIOD

 END PROCESSING AG STRESS PERIOD DATA OPTIONS
 
 SOLVING FOR HEAD 
                                                   Max.-Head-Change                         Max.-Flux-Residual
  Residual-Control   Outer-Iter.   Inner-Iter.     Column Row Layer    Maximum-Head-Change  Column Row Layer    Maximum-Flux-Residual          L2-NORM 
          0                 1           2             4    7     1       0.2510955317E-01       4    7    1         0.1320539718E+01      0.3066582920E+01
          0                 2           2             4    7     1      -0.2441166050E-02       4    7    1        -0.1319832785E+00      0.3064913091E+00
          0                 3           2             4    7     1       0.1661091812E-03       4    7    1         0.9231864378E-02      0.2144043913E-01
          0                 4           1             4    7     1      -0.6601362495E-05       4    7    1        -0.3771101938E-03      0.8760570635E-03

    ------------------------------------------------
       NWT REQUIRED            4 OUTER ITERATIONS 
       AND A TOTAL OF          7 INNER ITERATIONS.
    ------------------------------------------------

 NO OUTPUT CONTROL FOR STRESS PERIOD   13   TIME STEP    1
 
 SOLVING FOR HEAD 
                                                   Max.-Head-Change                         Max.-Flux-Residual
  Residual-Control   Outer-Iter.   Inner-Iter.     Column Row Layer    Maximum-Head-Change  Column Row Layer    Maximum-Flux-Residual          L2-NORM 
          0                 1           2             4    7     1       0.2480966786E-01       4    7    1         0.1304658418E+01      0.3035289895E+01
          0                 2           2             4    7     1      -0.2412010763E-02       4    7    1        -0.1303959804E+00      0.3033872333E+00
          0                 3           2             4    7     1       0.1641253040E-03       4    7    1         0.9120836814E-02      0.2122346100E-01
          0                 4           1             4    7     1      -0.6522520351E-05       4    7    1        -0.3725747929E-03      0.8671773926E-03

    ------------------------------------------------
       NWT REQUIRED            4 OUTER ITERATIONS 
       AND A TOTAL OF          7 INNER ITERATIONS.
    ------------------------------------------------

 NO OUTPUT CONTROL FOR STRESS PERIOD   13   TIME STEP    2
 
 SOLVING FOR HEAD 
                                                   Max.-Head-Change                         Max.-Flux-Residual
  Residual-Control   Outer-Iter.   Inner-Iter.     Column Row Layer    Maximum-Head-Change  Column Row Layer    Maximum-Flux-Residual          L2-NORM 
          0                 1           2             4    7     1       0.2451529395E-01       4    7    1         0.1289073023E+01      0.3004503773E+01
          0                 2           2             4    7     1      -0.2383391313E-02       4    7    1        -0.1288382579E+00      0.3003127521E+00
          0                 3           2             4    7     1       0.1621778886E-03       4    7    1         0.9011878003E-02      0.2100863680E-01
          0                 4           1             4    7     1      -0.6445127664E-05       4    7    1        -0.3681239409E-03      0.8583624285E-03

    ------------------------------------------------
       NWT REQUIRED            4 OUTER ITERATIONS 
       AND A TOTAL OF          7 INNER ITERATIONS.
    ------------------------------------------------

 NO OUTPUT CONTROL FOR STRESS PERIOD   13   TIME STEP    3
 
 SOLVING FOR HEAD 
                                                   Max.-Head-Change                         Max.-Flux-Residual
  Residual-Control   Outer-Iter.   Inner-Iter.     Column Row Layer    Maximum-Head-Change  Column Row Layer    Maximum-Flux-Residual          L2-NORM 
          0                 1           2             4    7     1       0.2422637785E-01       4    7    1         0.1273780730E+01      0.2974236295E+01
          0                 2           2             4    7     1      -0.2355302485E-02       4    7    1        -0.1273098308E+00      0.2972897280E+00
          0                 3           2             4    7     1       0.1602665793E-03       4    7    1         0.8904968348E-02      0.2079735883E-01
          0                 4           1             4    7     1      -0.6369169582E-05       4    7    1        -0.3637567665E-03      0.8497193964E-03

    ------------------------------------------------
       NWT REQUIRED            4 OUTER ITERATIONS 
       AND A TOTAL OF          7 INNER ITERATIONS.
    ------------------------------------------------

 NO OUTPUT CONTROL FOR STRESS PERIOD   13   TIME STEP    4
 
 SOLVING FOR HEAD 
                                                   Max.-Head-Change                         Max.-Flux-Residual
  Residual-Control   Outer-Iter.   Inner-Iter.     Column Row Layer    Maximum-Head-Change  Column Row Layer    Maximum-Flux-Residual          L2-NORM 
          0                 1           2             4    7     1       0.2394274034E-01       4    7    1         0.1258771415E+01      0.2944466632E+01
          0                 2           2             4    7     1      -0.2327726858E-02       4    7    1        -0.1258096872E+00      0.2943162392E+00
          0                 3           2             4    7     1       0.1583901917E-03       4    7    1         0.8800037085E-02      0.2058950970E-01
          0                 4           1             4    7     1      -0.6294599363E-05       4    7    1        -0.3594704276E-03      0.8412534275E-03

    ------------------------------------------------
       NWT REQUIRED            4 OUTER ITERATIONS 
       AND A TOTAL OF          7 INNER ITERATIONS.
    ------------------------------------------------

 NO OUTPUT CONTROL FOR STRESS PERIOD   13   TIME STEP    5
 
 SOLVING FOR HEAD 
                                                   Max.-Head-Change                         Max.-Flux-Residual
  Residual-Control   Outer-Iter.   Inner-Iter.     Column Row Layer    Maximum-Head-Change  Column Row Layer    Maximum-Flux-Residual          L2-NORM 
          0                 1           2             4    7     1       0.2366420934E-01       4    7    1         0.1244035786E+01      0.2915181697E+01
          0                 2           2             4    7     1      -0.2300647701E-02       4    7    1        -0.1243368983E+00      0.2913909688E+00
          0                 3           2             4    7     1       0.1565475867E-03       4    7    1         0.8697019226E-02      0.2038510317E-01
          0                 4           1             4    7     1      -0.6221372222E-05       4    7    1        -0.3552622516E-03      0.8329404001E-03

    ------------------------------------------------
       NWT REQUIRED            4 OUTER ITERATIONS 
       AND A TOTAL OF          7 INNER ITERATIONS.
    ------------------------------------------------

 NO OUTPUT CONTROL FOR STRESS PERIOD   13   TIME STEP    6
 
 SOLVING FOR HEAD 
                                                   Max.-Head-Change                         Max.-Flux-Residual
  Residual-Control   Outer-Iter.   Inner-Iter.     Column Row Layer    Maximum-Head-Change  Column Row Layer    Maximum-Flux-Residual          L2-NORM 
          0                 1           2             4    7     1       0.2339049138E-01       4    7    1         0.1229557573E+01      0.2886362353E+01
          0                 2           2             4    7     1      -0.2274036479E-02       4    7    1        -0.1228898378E+00      0.2885119232E+00
          0                 3           2             4    7     1       0.1547368220E-03       4    7    1         0.8595801002E-02      0.2018377795E-01
          0                 4           1             4    7     1      -0.6149409874E-05       4    7    1        -0.3511275722E-03      0.8246907141E-03

    ------------------------------------------------
       NWT REQUIRED            4 OUTER ITERATIONS 
       AND A TOTAL OF          7 INNER ITERATIONS.
    ------------------------------------------------

 NO OUTPUT CONTROL FOR STRESS PERIOD   13   TIME STEP    7
 
 SOLVING FOR HEAD 
                                                   Max.-Head-Change                         Max.-Flux-Residual
  Residual-Control   Outer-Iter.   Inner-Iter.     Column Row Layer    Maximum-Head-Change  Column Row Layer    Maximum-Flux-Residual          L2-NORM 
          0                 1           2             4    7     1       0.2312170421E-01       4    7    1         0.1215343603E+01      0.2857996484E+01
          0                 2           2             4    7     1      -0.2247904643E-02       4    7    1        -0.1214691882E+00      0.2856780864E+00
          0                 3           2             4    7     1       0.1529586777E-03       4    7    1         0.8496430179E-02      0.1998570482E-01
          0                 4           1             4    7     1      -0.6078744437E-05       4    7    1        -0.3470683705E-03      0.8166103945E-03

    ------------------------------------------------
       NWT REQUIRED            4 OUTER ITERATIONS 
       AND A TOTAL OF          7 INNER ITERATIONS.
    ------------------------------------------------

 NO OUTPUT CONTROL FOR STRESS PERIOD   13   TIME STEP    8
 
 SOLVING FOR HEAD 
                                                   Max.-Head-Change                         Max.-Flux-Residual
  Residual-Control   Outer-Iter.   Inner-Iter.     Column Row Layer    Maximum-Head-Change  Column Row Layer    Maximum-Flux-Residual          L2-NORM 
          0                 1           2             4    7     1       0.2285742760E-01       4    7    1         0.1201370589E+01      0.2830071720E+01
          0                 2           2             4    7     1      -0.2222211334E-02       4    7    1        -0.1200726220E+00      0.2828881702E+00
          0                 3           2             4    7     1       0.1512103732E-03       4    7    1         0.8398743929E-02      0.1979066743E-01
          0                 4           1             4    7     1      -0.6009264470E-05       4    7    1        -0.3430779893E-03      0.8086750886E-03

    ------------------------------------------------
       NWT REQUIRED            4 OUTER ITERATIONS 
       AND A TOTAL OF          7 INNER ITERATIONS.
    ------------------------------------------------

 NO OUTPUT CONTROL FOR STRESS PERIOD   13   TIME STEP    9
 
 SOLVING FOR HEAD 
                                                   Max.-Head-Change                         Max.-Flux-Residual
  Residual-Control   Outer-Iter.   Inner-Iter.     Column Row Layer    Maximum-Head-Change  Column Row Layer    Maximum-Flux-Residual          L2-NORM 
          0                 1           2             4    7     1       0.2259779498E-01       4    7    1         0.1187646136E+01      0.2802572039E+01
          0                 2           2             4    7     1      -0.2196969526E-02       4    7    1        -0.1187008992E+00      0.2801405197E+00
          0                 3           2             4    7     1       0.1494927915E-03       4    7    1         0.8302795438E-02      0.1959848083E-01
          0                 4           1             4    7     1      -0.5941005776E-05       4    7    1        -0.3391585856E-03      0.8008068196E-03

    ------------------------------------------------
       NWT REQUIRED            4 OUTER ITERATIONS 
       AND A TOTAL OF          7 INNER ITERATIONS.
    ------------------------------------------------

 NO OUTPUT CONTROL FOR STRESS PERIOD   13   TIME STEP   10
 
 SOLVING FOR HEAD 
                                                   Max.-Head-Change                         Max.-Flux-Residual
  Residual-Control   Outer-Iter.   Inner-Iter.     Column Row Layer    Maximum-Head-Change  Column Row Layer    Maximum-Flux-Residual          L2-NORM 
          0                 1           2             4    7     1       0.2234239953E-01       4    7    1         0.1174147768E+01      0.2775495870E+01
          0                 2           2             4    7     1      -0.2172139667E-02       4    7    1        -0.1173517734E+00      0.2774316773E+00
          0                 3           2             4    7     1       0.1478032408E-03       4    7    1         0.8208427554E-02      0.1940922214E-01
          0                 4           1             4    7     1      -0.5873860481E-05       4    7    1        -0.3353037428E-03      0.7931110878E-03

    ------------------------------------------------
       NWT REQUIRED            4 OUTER ITERATIONS 
       AND A TOTAL OF          7 INNER ITERATIONS.
    ------------------------------------------------

 NO OUTPUT CONTROL FOR STRESS PERIOD   13   TIME STEP   11
 
 SOLVING FOR HEAD 
                                                   Max.-Head-Change                         Max.-Flux-Residual
  Residual-Control   Outer-Iter.   Inner-Iter.     Column Row Layer    Maximum-Head-Change  Column Row Layer    Maximum-Flux-Residual          L2-NORM 
          0                 1           2             4    7     1       0.2209139525E-01       4    7    1         0.1160883788E+01      0.2748830943E+01
          0                 2           2             4    7     1      -0.2147736729E-02       4    7    1        -0.1160260743E+00      0.2747710828E+00
          0                 3           2             4    7     1       0.1461427404E-03       4    7    1         0.8115698316E-02      0.1922312898E-01
          0                 4           1             4    7     1      -0.5807870377E-05       4    7    1        -0.3315158633E-03      0.7855349614E-03

    ------------------------------------------------
       NWT REQUIRED            4 OUTER ITERATIONS 
       AND A TOTAL OF          7 INNER ITERATIONS.
    ------------------------------------------------

 NO OUTPUT CONTROL FOR STRESS PERIOD   13   TIME STEP   12
 
 SOLVING FOR HEAD 
                                                   Max.-Head-Change                         Max.-Flux-Residual
  Residual-Control   Outer-Iter.   Inner-Iter.     Column Row Layer    Maximum-Head-Change  Column Row Layer    Maximum-Flux-Residual          L2-NORM 
          0                 1           2             4    7     1       0.2184451713E-01       4    7    1         0.1147840133E+01      0.2722559674E+01
          0                 2           2             4    7     1      -0.2123734944E-02       4    7    1        -0.1147223966E+00      0.2721458836E+00
          0                 3           2             4    7     1       0.1445095362E-03       4    7    1         0.8024509423E-02      0.1903955557E-01
          0                 4           1             4    7     1      -0.5742964775E-05       4    7    1        -0.3277908727E-03      0.7780333762E-03

    ------------------------------------------------
       NWT REQUIRED            4 OUTER ITERATIONS 
       AND A TOTAL OF          7 INNER ITERATIONS.
    ------------------------------------------------

 NO OUTPUT CONTROL FOR STRESS PERIOD   13   TIME STEP   13
 
 SOLVING FOR HEAD 
                                                   Max.-Head-Change                         Max.-Flux-Residual
  Residual-Control   Outer-Iter.   Inner-Iter.     Column Row Layer    Maximum-Head-Change  Column Row Layer    Maximum-Flux-Residual          L2-NORM 
          0                 1           2             4    7     1       0.2160164936E-01       4    7    1         0.1135010412E+01      0.2696668455E+01
          0                 2           2             4    7     1      -0.2100123056E-02       4    7    1        -0.1134401011E+00      0.2695586194E+00
          0                 3           2             4    7     1       0.1429028630E-03       4    7    1         0.7934816179E-02      0.1885860439E-01
          0                 4           1             4    7     1      -0.5679113626E-05       4    7    1        -0.3241269965E-03      0.7706233337E-03

    ------------------------------------------------
       NWT REQUIRED            4 OUTER ITERATIONS 
       AND A TOTAL OF          7 INNER ITERATIONS.
    ------------------------------------------------

 NO OUTPUT CONTROL FOR STRESS PERIOD   13   TIME STEP   14
 
 SOLVING FOR HEAD 
                                                   Max.-Head-Change                         Max.-Flux-Residual
  Residual-Control   Outer-Iter.   Inner-Iter.     Column Row Layer    Maximum-Head-Change  Column Row Layer    Maximum-Flux-Residual          L2-NORM 
          0                 1           2             4    7     1       0.2136282028E-01       4    7    1         0.1122395970E+01      0.2671163935E+01
          0                 2           2             4    7     1      -0.2076903819E-02       4    7    1        -0.1121793226E+00      0.2670099680E+00
          0                 3           2             4    7     1       0.1413229078E-03       4    7    1         0.7846628012E-02      0.1868041146E-01
          0                 4           1             4    7     1      -0.5616323954E-05       4    7    1        -0.3205245825E-03      0.7633459657E-03

    ------------------------------------------------
       NWT REQUIRED            4 OUTER ITERATIONS 
       AND A TOTAL OF          7 INNER ITERATIONS.
    ------------------------------------------------

 NO OUTPUT CONTROL FOR STRESS PERIOD   13   TIME STEP   15
 
 SOLVING FOR HEAD 
                                                   Max.-Head-Change                         Max.-Flux-Residual
  Residual-Control   Outer-Iter.   Inner-Iter.     Column Row Layer    Maximum-Head-Change  Column Row Layer    Maximum-Flux-Residual          L2-NORM 
          0                 1           2             4    7     1       0.2112778499E-01       4    7    1         0.1109983577E+01      0.2646029097E+01
          0                 2           2             4    7     1      -0.2054053421E-02       4    7    1        -0.1109387387E+00      0.2644981152E+00
          0                 3           2             4    7     1       0.1397680504E-03       4    7    1         0.7759852371E-02      0.1850468055E-01
          0                 4           1             4    7     1      -0.5554532553E-05       4    7    1        -0.3169799065E-03      0.7561485943E-03

    ------------------------------------------------
       NWT REQUIRED            4 OUTER ITERATIONS 
       AND A TOTAL OF          7 INNER ITERATIONS.
    ------------------------------------------------

 NO OUTPUT CONTROL FOR STRESS PERIOD   13   TIME STEP   16
 
 SOLVING FOR HEAD 
                                                   Max.-Head-Change                         Max.-Flux-Residual
  Residual-Control   Outer-Iter.   Inner-Iter.     Column Row Layer    Maximum-Head-Change  Column Row Layer    Maximum-Flux-Residual          L2-NORM 
          0                 1           2             4    7     1       0.2089658091E-01       4    7    1         0.1097775237E+01      0.2621261069E+01
          0                 2           2             4    7     1      -0.2031575503E-02       4    7    1        -0.1097185494E+00      0.2620229311E+00
          0                 3           2             4    7     1       0.1382385385E-03       4    7    1         0.7674503309E-02      0.1833157874E-01
          0                 4           1             4    7     1      -0.5493747713E-05       4    7    1        -0.3134934873E-03      0.7490709589E-03

    ------------------------------------------------
       NWT REQUIRED            4 OUTER ITERATIONS 
       AND A TOTAL OF          7 INNER ITERATIONS.
    ------------------------------------------------

 NO OUTPUT CONTROL FOR STRESS PERIOD   13   TIME STEP   17
 
 SOLVING FOR HEAD 
                                                   Max.-Head-Change                         Max.-Flux-Residual
  Residual-Control   Outer-Iter.   Inner-Iter.     Column Row Layer    Maximum-Head-Change  Column Row Layer    Maximum-Flux-Residual          L2-NORM 
          0                 1           2             4    7     1       0.2066896834E-01       4    7    1         0.1085758186E+01      0.2596833493E+01
          0                 2           2             4    7     1      -0.2009446759E-02       4    7    1        -0.1085174793E+00      0.2595817498E+00
          0                 3           2             4    7     1       0.1367327866E-03       4    7    1         0.7590491613E-02      0.1816083515E-01
          0                 4           1             4    7     1      -0.5433907264E-05       4    7    1        -0.3100616955E-03      0.7420852508E-03

    ------------------------------------------------
       NWT REQUIRED            4 OUTER ITERATIONS 
       AND A TOTAL OF          7 INNER ITERATIONS.
    ------------------------------------------------

 NO OUTPUT CONTROL FOR STRESS PERIOD   13   TIME STEP   18
 
 SOLVING FOR HEAD 
                                                   Max.-Head-Change                         Max.-Flux-Residual
  Residual-Control   Outer-Iter.   Inner-Iter.     Column Row Layer    Maximum-Head-Change  Column Row Layer    Maximum-Flux-Residual          L2-NORM 
          0                 1           2             4    7     1       0.2044499419E-01       4    7    1         0.1073934700E+01      0.2572766144E+01
          0                 2           2             4    7     1      -0.1987671750E-02       4    7    1        -0.1073357557E+00      0.2571764855E+00
          0                 3           2             4    7     1       0.1352511043E-03       4    7    1         0.7507833143E-02      0.1799262219E-01
          0                 4           1             4    7     1      -0.5375023411E-05       4    7    1        -0.3066851787E-03      0.7352242067E-03

    ------------------------------------------------
       NWT REQUIRED            4 OUTER ITERATIONS 
       AND A TOTAL OF          7 INNER ITERATIONS.
    ------------------------------------------------

 NO OUTPUT CONTROL FOR STRESS PERIOD   13   TIME STEP   19
 
 SOLVING FOR HEAD 
                                                   Max.-Head-Change                         Max.-Flux-Residual
  Residual-Control   Outer-Iter.   Inner-Iter.     Column Row Layer    Maximum-Head-Change  Column Row Layer    Maximum-Flux-Residual          L2-NORM 
          0                 1           2             4    7     1       0.2022456280E-01       4    7    1         0.1062299861E+01      0.2549033097E+01
          0                 2           2             4    7     1      -0.1966241175E-02       4    7    1        -0.1061728870E+00      0.2548045671E+00
          0                 3           2             4    7     1       0.1337928591E-03       4    7    1         0.7426493519E-02      0.1782671333E-01
          0                 4           1             4    7     1      -0.5317070940E-05       4    7    1        -0.3033625430E-03      0.7284383038E-03

    ------------------------------------------------
       NWT REQUIRED            4 OUTER ITERATIONS 
       AND A TOTAL OF          7 INNER ITERATIONS.
    ------------------------------------------------

 NO OUTPUT CONTROL FOR STRESS PERIOD   13   TIME STEP   20
 
 SOLVING FOR HEAD 
                                                   Max.-Head-Change                         Max.-Flux-Residual
  Residual-Control   Outer-Iter.   Inner-Iter.     Column Row Layer    Maximum-Head-Change  Column Row Layer    Maximum-Flux-Residual          L2-NORM 
          0                 1           2             4    7     1       0.2000745136E-01       4    7    1         0.1050841355E+01      0.2525632984E+01
          0                 2           2             4    7     1      -0.1945133373E-02       4    7    1        -0.1050276425E+00      0.2524659492E+00
          0                 3           2             4    7     1       0.1323565776E-03       4    7    1         0.7346386692E-02      0.1766316374E-01
          0                 4           1             4    7     1      -0.5259991367E-05       4    7    1        -0.3000902666E-03      0.7217927241E-03

    ------------------------------------------------
       NWT REQUIRED            4 OUTER ITERATIONS 
       AND A TOTAL OF          7 INNER ITERATIONS.
    ------------------------------------------------

 NO OUTPUT CONTROL FOR STRESS PERIOD   13   TIME STEP   21
 
 SOLVING FOR HEAD 
                                                   Max.-Head-Change                         Max.-Flux-Residual
  Residual-Control   Outer-Iter.   Inner-Iter.     Column Row Layer    Maximum-Head-Change  Column Row Layer    Maximum-Flux-Residual          L2-NORM 
          0                 1           2             4    7     1       0.1979371829E-01       4    7    1         0.1039562335E+01      0.2502565358E+01
          0                 2           2             4    7     1      -0.1924354022E-02       4    7    1        -0.1039003374E+00      0.2501604557E+00
          0                 3           2             4    7     1       0.1309426447E-03       4    7    1         0.7267534646E-02      0.1750191385E-01
          0                 4           1             4    7     1      -0.5203799887E-05       4    7    1        -0.2968692334E-03      0.7152001531E-03

    ------------------------------------------------
       NWT REQUIRED            4 OUTER ITERATIONS 
       AND A TOTAL OF          7 INNER ITERATIONS.
    ------------------------------------------------

 NO OUTPUT CONTROL FOR STRESS PERIOD   13   TIME STEP   22
 
 SOLVING FOR HEAD 
                                                   Max.-Head-Change                         Max.-Flux-Residual
  Residual-Control   Outer-Iter.   Inner-Iter.     Column Row Layer    Maximum-Head-Change  Column Row Layer    Maximum-Flux-Residual          L2-NORM 
          0                 1           2             4    7     1       0.1958327565E-01       4    7    1         0.1028458477E+01      0.2479808066E+01
          0                 2           2             4    7     1      -0.1903894574E-02       4    7    1        -0.1027905395E+00      0.2478860279E+00
          0                 3           2             4    7     1       0.1295504803E-03       4    7    1         0.7189907223E-02      0.1734261277E-01
          0                 4           1             4    7     1      -0.5148473707E-05       4    7    1        -0.2936982328E-03      0.7098146094E-03

    ------------------------------------------------
       NWT REQUIRED            4 OUTER ITERATIONS 
       AND A TOTAL OF          7 INNER ITERATIONS.
    ------------------------------------------------

 NO OUTPUT CONTROL FOR STRESS PERIOD   13   TIME STEP   23
 
 SOLVING FOR HEAD 
                                                   Max.-Head-Change                         Max.-Flux-Residual
  Residual-Control   Outer-Iter.   Inner-Iter.     Column Row Layer    Maximum-Head-Change  Column Row Layer    Maximum-Flux-Residual          L2-NORM 
          0                 1           2             4    7     1       0.1937591284E-01       4    7    1         0.1017517870E+01      0.2457362380E+01
          0                 2           2             4    7     1      -0.1883734552E-02       4    7    1        -0.1016970581E+00      0.2456426680E+00
          0                 3           2             4    7     1       0.1281786907E-03       4    7    1         0.7113421096E-02      0.1718589342E-01
          0                 4           1             4    7     1      -0.5093957220E-05       4    7    1        -0.2905738684E-03      0.7023050420E-03

    ------------------------------------------------
       NWT REQUIRED            4 OUTER ITERATIONS 
       AND A TOTAL OF          7 INNER ITERATIONS.
    ------------------------------------------------

 NO OUTPUT CONTROL FOR STRESS PERIOD   13   TIME STEP   24
 
 SOLVING FOR HEAD 
                                                   Max.-Head-Change                         Max.-Flux-Residual
  Residual-Control   Outer-Iter.   Inner-Iter.     Column Row Layer    Maximum-Head-Change  Column Row Layer    Maximum-Flux-Residual          L2-NORM 
          0                 1           2             4    7     1       0.1917182951E-01       4    7    1         0.1006751653E+01      0.2435235456E+01
          0                 2           2             4    7     1      -0.1863893368E-02       4    7    1        -0.1006210067E+00      0.2434311572E+00
          0                 3           2             4    7     1       0.1268285958E-03       4    7    1         0.7038154129E-02      0.1703120580E-01
          0                 4           1             4    7     1      -0.5040302922E-05       4    7    1        -0.2874992970E-03      0.6959652606E-03

    ------------------------------------------------
       NWT REQUIRED            4 OUTER ITERATIONS 
       AND A TOTAL OF          7 INNER ITERATIONS.
    ------------------------------------------------

 NO OUTPUT CONTROL FOR STRESS PERIOD   13   TIME STEP   25
 
 SOLVING FOR HEAD 
                                                   Max.-Head-Change                         Max.-Flux-Residual
  Residual-Control   Outer-Iter.   Inner-Iter.     Column Row Layer    Maximum-Head-Change  Column Row Layer    Maximum-Flux-Residual          L2-NORM 
          0                 1           2             4    7     1       0.1897080712E-01       4    7    1         0.9961481182E+00      0.2413401072E+01
          0                 2           2             4    7     1      -0.1844349774E-02       4    7    1        -0.9956121515E-01      0.2412489071E+00
          0                 3           2             4    7     1       0.1254987508E-03       4    7    1         0.6964024523E-02      0.1687858466E-01
          0                 4           1             4    7     1      -0.4987453137E-05       4    7    1        -0.2844711703E-03      0.6897400165E-03

    ------------------------------------------------
       NWT REQUIRED            4 OUTER ITERATIONS 
       AND A TOTAL OF          7 INNER ITERATIONS.
    ------------------------------------------------

 NO OUTPUT CONTROL FOR STRESS PERIOD   13   TIME STEP   26
 
 SOLVING FOR HEAD 
                                                   Max.-Head-Change                         Max.-Flux-Residual
  Residual-Control   Outer-Iter.   Inner-Iter.     Column Row Layer    Maximum-Head-Change  Column Row Layer    Maximum-Flux-Residual          L2-NORM 
          0                 1           2             4    7     1       0.1877264300E-01       4    7    1         0.9856959334E+00      0.2391866624E+01
          0                 2           2             4    7     1      -0.1825084066E-02       4    7    1        -0.9851655072E-01      0.2390965895E+00
          0                 3           2             4    7     1       0.1241878150E-03       4    7    1         0.6890953029E-02      0.1672801486E-01
          0                 4           1             4    7     1      -0.4935355250E-05       4    7    1        -0.2814862933E-03      0.6835959510E-03

    ------------------------------------------------
       NWT REQUIRED            4 OUTER ITERATIONS 
       AND A TOTAL OF          7 INNER ITERATIONS.
    ------------------------------------------------

 NO OUTPUT CONTROL FOR STRESS PERIOD   13   TIME STEP   27
 
 SOLVING FOR HEAD 
                                                   Max.-Head-Change                         Max.-Flux-Residual
  Residual-Control   Outer-Iter.   Inner-Iter.     Column Row Layer    Maximum-Head-Change  Column Row Layer    Maximum-Flux-Residual          L2-NORM 
          0                 1           2             4    7     1       0.1857754538E-01       4    7    1         0.9754066536E+00      0.2370623597E+01
          0                 2           2             4    7     1      -0.1806116489E-02       4    7    1        -0.9748816834E-01      0.2369734107E+00
          0                 3           2             4    7     1       0.1228971653E-03       4    7    1         0.6819020418E-02      0.1657951161E-01
          0                 4           1             4    7     1      -0.4884063371E-05       4    7    1        -0.2785479301E-03      0.6775254499E-03

    ------------------------------------------------
       NWT REQUIRED            4 OUTER ITERATIONS 
       AND A TOTAL OF          7 INNER ITERATIONS.
    ------------------------------------------------

 NO OUTPUT CONTROL FOR STRESS PERIOD   13   TIME STEP   28
 
 SOLVING FOR HEAD 
                                                   Max.-Head-Change                         Max.-Flux-Residual
  Residual-Control   Outer-Iter.   Inner-Iter.     Column Row Layer    Maximum-Head-Change  Column Row Layer    Maximum-Flux-Residual          L2-NORM 
          0                 1           2             4    7     1       0.1838530541E-01       4    7    1         0.9652690124E+00      0.2349665130E+01
          0                 2           2             4    7     1      -0.1787426737E-02       4    7    1        -0.9647494194E-01      0.2348785951E+00
          0                 3           2             4    7     1       0.1216254201E-03       4    7    1         0.6748147920E-02      0.1643293308E-01
          0                 4           1             4    7     1      -0.4833522470E-05       4    7    1        -0.2756528638E-03      0.6715202124E-03

    ------------------------------------------------
       NWT REQUIRED            4 OUTER ITERATIONS 
       AND A TOTAL OF          7 INNER ITERATIONS.
    ------------------------------------------------

 NO OUTPUT CONTROL FOR STRESS PERIOD   13   TIME STEP   29
 
 SOLVING FOR HEAD 
                                                   Max.-Head-Change                         Max.-Flux-Residual
  Residual-Control   Outer-Iter.   Inner-Iter.     Column Row Layer    Maximum-Head-Change  Column Row Layer    Maximum-Flux-Residual          L2-NORM 
          0                 1           2             4    7     1       0.1819572707E-01       4    7    1         0.9552721799E+00      0.2328981410E+01
          0                 2           2             4    7     1      -0.1768995753E-02       4    7    1        -0.9547578907E-01      0.2328112944E+00
          0                 3           1             4    7     1       0.1203712852E-03       4    7    1         0.6678259832E-02      0.1628837304E-01
          0                 4           1             4    7     1      -0.4783684537E-05       4    7    1        -0.2727980063E-03      0.6656247202E-03

    ------------------------------------------------
       NWT REQUIRED            4 OUTER ITERATIONS 
       AND A TOTAL OF          6 INNER ITERATIONS.
    ------------------------------------------------

 NO OUTPUT CONTROL FOR STRESS PERIOD   13   TIME STEP   30



 STREAM LISTING     PERIOD     13   STEP       30

 LAYER ROW COL. STREAM  RCH.  FLOW INTO     FLOW TO   FLOW OUT OF   OVRLND.     DIRECT     STREAM       STREAM     STREAM     STREAM   STREAMBED  STREAMBED
                SEG.NO.  NO.  STRM. RCH.    AQUIFER    STRM. RCH.    RUNOFF     PRECIP       ET          HEAD       DEPTH      WIDTH   CONDCTNC.   GRADIENT

   1    1    1     1     1    2.3000E+01  2.3574E-01   2.2764E+01  0.000E+00  0.000E+00  0.000E+00  1.09420E+03  1.148E+00  1.263E+01  5.684E-02  1.383E+00
   1    2    2     1     2    2.2764E+01  3.6445E-01   2.2400E+01  0.000E+00  0.000E+00  0.000E+00  1.08920E+03  1.143E+00  1.257E+01  8.797E-02  1.381E+00
   1    3    3     1     3    2.2400E+01  3.1019E-01   2.2089E+01  0.000E+00  0.000E+00  0.000E+00  1.08356E+03  1.138E+00  1.250E+01  7.497E-02  1.379E+00
   1    3    4     1     4    2.2089E+01  2.8513E-01   2.1804E+01  0.000E+00  0.000E+00  0.000E+00  1.07854E+03  1.133E+00  1.243E+01  6.899E-02  1.378E+00
   1    4    5     2     1    1.9804E+01  3.1551E-01   1.9489E+01  0.000E+00  0.000E+00  0.000E+00  1.07298E+03  1.045E+00  1.200E+01  7.800E-02  1.348E+00
   1    5    6     2     2    1.9489E+01  2.4216E-01   1.9247E+01  0.000E+00  0.000E+00  0.000E+00  1.06755E+03  1.036E+00  1.200E+01  6.000E-02  1.345E+00
   1    6    6     2     3    1.9247E+01  2.4170E-01   1.9005E+01  0.000E+00  0.000E+00  0.000E+00  1.06282E+03  1.028E+00  1.200E+01  6.000E-02  1.343E+00
   1    7    6     2     4    1.9005E+01  2.4123E-01   1.8764E+01  0.000E+00  0.000E+00  0.000E+00  1.05810E+03  1.020E+00  1.200E+01  6.000E-02  1.340E+00
   1    8    6     2     5    1.8764E+01  2.4076E-01   1.8523E+01  0.000E+00  0.000E+00  0.000E+00  1.05337E+03  1.013E+00  1.200E+01  6.000E-02  1.338E+00
   1    3    5     3     1    2.0000E+00  2.8252E-01   1.7175E+00  0.000E+00  0.000E+00  0.000E+00  1.07555E+03  1.909E+00  9.636E+00  7.227E-02  1.955E+00
   1    3    6     3     2    1.7175E+00  2.4905E-01   1.4684E+00  0.000E+00  0.000E+00  0.000E+00  1.07264E+03  1.727E+00  8.909E+00  6.682E-02  1.864E+00
   1    3    7     3     3    1.4684E+00  1.9718E-01   1.2712E+00  0.000E+00  0.000E+00  0.000E+00  1.06987E+03  1.555E+00  8.218E+00  5.547E-02  1.777E+00
   1    4    8     3     4    1.2712E+00  2.2567E-01   1.0456E+00  0.000E+00  0.000E+00  0.000E+00  1.06682E+03  1.364E+00  7.455E+00  6.709E-02  1.682E+00
   1    5    8     3     5    1.0456E+00  1.5790E-01   8.8768E-01  0.000E+00  0.000E+00  0.000E+00  1.06362E+03  1.164E+00  6.655E+00  4.991E-02  1.582E+00
   1    6    8     3     6    8.8768E-01  5.5980E-02   8.3170E-01  0.000E+00  0.000E+00  0.000E+00  1.06158E+03  1.036E+00  6.145E+00  1.844E-02  1.518E+00
   1    5   10     4     1    1.0000E+01  9.0919E-02   9.9091E+00  0.000E+00  0.000E+00  0.000E+00  1.07836E+03  6.368E-01  1.000E+01  2.500E-02  1.212E+00
   1    5    9     4     2    9.9091E+00  1.8158E-01   9.7275E+00  0.000E+00  0.000E+00  0.000E+00  1.07154E+03  6.315E-01  1.000E+01  5.000E-02  1.211E+00
   1    6    8     4     3    9.7275E+00  1.2689E-01   9.6006E+00  0.000E+00  0.000E+00  0.000E+00  1.06381E+03  6.256E-01  1.000E+01  3.500E-02  1.209E+00
   1    6    8     5     1    1.0432E+01  2.2686E-01   1.0205E+01  0.000E+00  0.000E+00  0.000E+00  1.05868E+03  6.790E-01  1.542E+01  6.166E-02  1.226E+00
   1    7    7     5     2    1.0205E+01  2.7894E-01   9.9265E+00  0.000E+00  0.000E+00  0.000E+00  1.05417E+03  6.732E-01  1.519E+01  7.594E-02  1.224E+00
   1    8    7     5     3    9.9265E+00  1.9221E-01   9.7343E+00  0.000E+00  0.000E+00  0.000E+00  1.04992E+03  6.676E-01  1.497E+01  5.241E-02  1.223E+00
   1    8    6     5     4    9.7343E+00  1.3577E-01   9.5985E+00  0.000E+00  0.000E+00  0.000E+00  1.04691E+03  6.637E-01  1.482E+01  3.706E-02  1.221E+00
   1    9    6     6     1    2.8121E+01  2.5841E-01   2.7863E+01  0.000E+00  0.000E+00  0.000E+00  1.04403E+03  1.307E+00  1.200E+01  6.000E-02  1.436E+00
   1   10    7     6     2    2.7863E+01  2.5797E-01   2.7605E+01  0.000E+00  0.000E+00  0.000E+00  1.03948E+03  1.300E+00  1.200E+01  6.000E-02  1.433E+00
   1   11    7     6     3    2.7605E+01  2.5753E-01   2.7348E+01  0.000E+00  0.000E+00  0.000E+00  1.03493E+03  1.292E+00  1.200E+01  6.000E-02  1.431E+00
   1   12    7     6     4    2.7348E+01  2.5710E-01   2.7090E+01  0.000E+00  0.000E+00  0.000E+00  1.03038E+03  1.285E+00  1.200E+01  6.000E-02  1.428E+00
   1   13    7     6     5    2.7090E+01  4.5811E-04   2.7090E+01  0.000E+00  0.000E+00  0.000E+00  1.02719E+03  1.281E+00  1.200E+01  2.400E-02  6.363E-03
   1   14    9     7     1    1.5000E+02  1.3296E+00   1.4867E+02  0.000E+00  0.000E+00  0.000E+00  1.03987E+03  2.288E+00  5.529E+01  5.593E-01  7.924E-01
   1   13    8     7     2    1.4867E+02  1.8008E+00   1.4687E+02  0.000E+00  0.000E+00  0.000E+00  1.03478E+03  2.279E+00  5.526E+01  6.148E-01  9.764E-01
   1   13    7     7     3    1.4687E+02  1.4067E+00   1.4546E+02  0.000E+00  0.000E+00  0.000E+00  1.02969E+03  2.271E+00  5.522E+01  5.585E-01  8.396E-01
   1   13    6     8     1    1.7255E+02  8.7516E-01   1.7168E+02  0.000E+00  0.000E+00  0.000E+00  1.02484E+03  2.966E+00  4.301E+01  4.382E-01  6.657E-01
   1   13    5     8     2    1.7168E+02  1.3736E-01   1.7154E+02  0.000E+00  0.000E+00  0.000E+00  1.01859E+03  2.963E+00  4.296E+01  4.378E-01  1.046E-01
   1   13    4     8     3    1.7154E+02 -2.5487E+00   1.7409E+02  0.000E+00  0.000E+00  0.000E+00  1.01235E+03  2.970E+00  4.307E+01  4.389E+00 -1.936E-01
   1   13    3     8     4    1.7409E+02 -3.7215E+00   1.7781E+02  0.000E+00  0.000E+00  0.000E+00  1.00612E+03  2.991E+00  4.336E+01  4.419E+00 -2.807E-01
   1   13    2     8     5    1.7781E+02 -2.6044E+00   1.8042E+02  0.000E+00  0.000E+00  0.000E+00  9.99886E+02  3.011E+00  4.365E+01  4.448E+00 -1.952E-01
   1   13    1     8     6    1.8042E+02 -2.0003E+00   1.8242E+02  0.000E+00  0.000E+00  0.000E+00  9.94900E+02  3.025E+00  4.386E+01  2.682E+00 -2.486E-01





UNSATURATED ZONE PACKAGE VOLUMETRIC BUDGET FOR  TIME STEP    30 STRESS PERIOD   13
  ------------------------------------------------------------------------------



     CUMULATIVE VOLUMES      L**3       RATES FOR THIS TIME STEP      L**3/T
     ------------------                 ------------------------

           IN:                                      IN:
           ---                                      ---
        INFILTRATION =   461868384.0183          INFILTRATION =           0.8475

          OUT:                                     OUT:
          ----                                     ----
              UZF ET =   423349502.5663                UZF ET =           0.7500
        UZF RECHARGE =    37933190.5687          UZF RECHARGE =           0.0002

            IN - OUT =      585690.8833              IN - OUT =       9.7274E-02

          STORAGE:                                 STORAGE:
          --------                                 --------
      STORAGE CHANGE =      585691.3865        STORAGE CHANGE =       9.7274E-02

 PERCENT DISCREPANCY IS DIFFERENCE BETWEEN IN-OUT MINUS CHANGE IN STORAGE
 DIVIDED BY THE AVERAGE OF IN AND OUT TIMES 100

 PERCENT DISCREPANCY =           0.00     PERCENT DISCREPANCY =           0.00






1
  VOLUMETRIC BUDGET FOR AGRICULTURAL FIELDS AT  END OF TIME STEP   30, STRESS PERIOD  13
  ------------------------------------------------------------------------------

     CUMULATIVE VOLUMES      L**3       RATES FOR THIS TIME STEP      L**3/T
     ------------------                 ------------------------

           IN:                                      IN:
           ---                                      ---
               AG WELLS  =   435047680.0000                 AG WELLS  =           0.0000
      DIVERSION SEGMENTS =           0.0000        DIVERSION SEGMENTS =           0.0000
       IRRIGATION PONDS  =           0.0000         IRRIGATION PONDS  =           0.0000
           GW IRRIGATION =           0.0000             GW IRRIGATION =           0.0000
           SW IRRIGATION =           0.0000             SW IRRIGATION =           0.0000
        SYSTEM LOSSES GW =           0.0000          SYSTEM LOSSES GW =           0.0000
        SYSTEM LOSSES SW =           0.0000          SYSTEM LOSSES SW =           0.0000

                TOTAL IN =   435047680.0000                  TOTAL IN =           0.0000

          OUT:                                     OUT:
          ----                                     ----
               AG WELLS  =           0.0000                 AG WELLS  =           0.0000
      DIVERSION SEGMENTS =           0.0000        DIVERSION SEGMENTS =           0.0000
       IRRIGATION PONDS  =           0.0000         IRRIGATION PONDS  =           0.0000
           GW IRRIGATION =   435047680.0000             GW IRRIGATION =           0.0000
           SW IRRIGATION =           0.0000             SW IRRIGATION =           0.0000
        SYSTEM LOSSES GW =           0.0000          SYSTEM LOSSES GW =           0.0000
        SYSTEM LOSSES SW =           0.0000          SYSTEM LOSSES SW =           0.0000

               TOTAL OUT =   435047680.0000                 TOTAL OUT =           0.0000

                IN - OUT =           0.0000                  IN - OUT =           0.0000

     PERCENT DISCREPANCY =           0.00         PERCENT DISCREPANCY =           0.00



1
  VOLUMETRIC BUDGET FOR ENTIRE MODEL AT END OF TIME STEP   30, STRESS PERIOD  13
  ------------------------------------------------------------------------------

     CUMULATIVE VOLUMES      L**3       RATES FOR THIS TIME STEP      L**3/T
     ------------------                 ------------------------

           IN:                                      IN:
           ---                                      ---
             STORAGE     =   559327040.0000               STORAGE     =           7.0180
       CONSTANT HEAD     =           0.0000         CONSTANT HEAD     =           0.0000
     HEAD DEP BOUNDS     =     9032907.0000       HEAD DEP BOUNDS     =           0.2853
      STREAM LEAKAGE     =   394483360.0000        STREAM LEAKAGE     =          11.4595
        UZF RECHARGE     =    37933192.0000          UZF RECHARGE     =       2.2617E-04
               GW ET     =           0.0000                 GW ET     =           0.0000
     SURFACE LEAKAGE     =           0.0000       SURFACE LEAKAGE     =           0.0000
           AG WELLS      =           0.0000             AG WELLS      =           0.0000

                TOTAL IN =  1000776448.0000                  TOTAL IN =          18.7630

          OUT:                                     OUT:
          ----                                     ----
             STORAGE     =   214050064.0000               STORAGE     =           7.5974
       CONSTANT HEAD     =           0.0000         CONSTANT HEAD     =           0.0000
     HEAD DEP BOUNDS     =     9325076.0000       HEAD DEP BOUNDS     =           0.2905
      STREAM LEAKAGE     =   328598528.0000        STREAM LEAKAGE     =          10.8750
        UZF RECHARGE     =           0.0000          UZF RECHARGE     =           0.0000
               GW ET     =    13758168.0000                 GW ET     =           0.0000
     SURFACE LEAKAGE     =           0.0000       SURFACE LEAKAGE     =           0.0000
           AG WELLS      =   435047680.0000             AG WELLS      =           0.0000

               TOTAL OUT =  1000779456.0000                 TOTAL OUT =          18.7630

                IN - OUT =       -3008.0000                  IN - OUT =       7.6294E-06

     PERCENT DISCREPANCY =          -0.00         PERCENT DISCREPANCY =           0.00






         TIME SUMMARY AT END OF TIME STEP   30 IN STRESS PERIOD   13
                    SECONDS     MINUTES      HOURS       DAYS        YEARS
                    -----------------------------------------------------------
   TIME STEP LENGTH  87667.      1461.1      24.352      1.0147     2.77799E-03
 STRESS PERIOD TIME 2.63000E+06  43833.      730.56      30.440     8.33397E-02
         TOTAL TIME 3.16463E+07 5.27439E+05  8790.6      366.28      1.0028    
1
1
                            STRESS PERIOD NO.   14, LENGTH =   2630000.    
                            -----------------------------------------------

                              NUMBER OF TIME STEPS =    30

                               MULTIPLIER FOR DELT =     1.000

                            INITIAL TIME STEP SIZE =   87666.66    

 REUSING NON-PARAMETER GHB CELLS FROM LAST STRESS PERIOD

      2 GHB CELLS

 REUSING STREAM SEGMENT DATA FROM LAST STRESS PERIOD



            AREAL INFILTRATION RATE
 READING ON UNIT   19 WITH FORMAT: (FREE)              

            1           2           3           4           5           6           7           8           9          10
 ........................................................................................................................
   1   1.0000E-10  2.0000E-10   0.000       0.000       0.000       0.000       0.000       0.000       0.000       0.000    
   2   2.0000E-10  1.0000E-10  2.0000E-10   0.000       0.000      8.0000E-10  8.0000E-10  5.0000E-10   0.000       0.000    
   3    0.000      5.0000E-10  1.0000E-10  1.0000E-10  8.0000E-10  8.0000E-10  5.0000E-10  5.0000E-10   0.000       0.000    
   4   8.0000E-10  5.0000E-10  1.0000E-10  1.0000E-10  1.0000E-10  1.0000E-10  1.0000E-10  1.0000E-10  2.0000E-10   0.000    
   5   8.0000E-10  5.0000E-10  1.0000E-10  1.0000E-10  1.0000E-10  1.0000E-10  1.0000E-10  1.0000E-10  1.0000E-10  1.0000E-10
   6   8.0000E-10  5.0000E-10  5.0000E-10  2.0000E-10  2.0000E-10  1.0000E-10  1.0000E-10  1.0000E-10  1.0000E-10  5.0000E-10
   7   8.0000E-10  5.0000E-10  5.0000E-10  2.0000E-10  2.0000E-10  1.0000E-10  1.0000E-10  2.0000E-10  2.0000E-10   0.000    
   8    0.000      5.0000E-10  5.0000E-10  2.0000E-10  2.0000E-10  1.0000E-10  1.0000E-10  2.0000E-10  5.0000E-10   0.000    
   9    0.000      5.0000E-10  5.0000E-10  2.0000E-10  2.0000E-10  1.0000E-10  1.0000E-10  2.0000E-10  5.0000E-10   0.000    
  10    0.000      5.0000E-10  5.0000E-10  2.0000E-10  2.0000E-10  1.0000E-10  1.0000E-10  2.0000E-10  5.0000E-10  8.0000E-10
  11    0.000      1.0000E-10  1.0000E-10  1.0000E-10  1.0000E-10  1.0000E-10  1.0000E-10  2.0000E-10  5.0000E-10   0.000    
  12   1.0000E-10  1.0000E-10  1.0000E-10  1.0000E-10  1.0000E-10  1.0000E-10  1.0000E-10  1.0000E-10  2.0000E-10   0.000    
  13   1.0000E-10  1.0000E-10  2.0000E-10  2.0000E-10  2.0000E-10  2.0000E-10  2.0000E-10  1.0000E-10  1.0000E-10   0.000    
  14    0.000      2.0000E-10  5.0000E-10  5.0000E-10  5.0000E-10  5.0000E-10  5.0000E-10  2.0000E-10  1.0000E-10   0.000    
  15    0.000       0.000      8.0000E-10  8.0000E-10  8.0000E-10  8.0000E-10   0.000       0.000       0.000       0.000    

                  ET RATE =  5.000000E-10

 USING ET EXTINCTION DEPTH FROM PREVIOUS STRESS PERIOD. CURRENT PERIOD IS:      14

 USING EXTINCTION WATER CONTENT FROM PREVIOUS STRESS PERIOD. CURRENT PERIOD IS:      14

 USING AIR ENTRY PRESSURE FROM PREVIOUS STRESS PERIOD. CURRENT PERIOD IS:      14

 USING ROOT PRESSURE HEAD FROM PREVIOUS STRESS PERIOD. CURRENT PERIOD IS:      14

 USING ROOT ACTIVITY FROM PREVIOUS STRESS PERIOD. CURRENT PERIOD IS:      14

 PROCESSING AG STRESS PERIOD DATA

 READING AG STRESS PERIOD DATA

 READING IRRIGATION WELL

 NO IRRPOND OR REUSING IRRPOND DATA FROM LAST STRESS PERIOD

 END PROCESSING AG STRESS PERIOD DATA OPTIONS
 
 SOLVING FOR HEAD 
                                                   Max.-Head-Change                         Max.-Flux-Residual
  Residual-Control   Outer-Iter.   Inner-Iter.     Column Row Layer    Maximum-Head-Change  Column Row Layer    Maximum-Flux-Residual          L2-NORM 
          0                 1           2             4    7     1       0.1800900833E-01       4    7    1         0.9454280590E+00      0.2312226890E+01
          0                 2           2             4    7     1      -0.1750843233E-02       4    7    1        -0.9449189949E-01      0.2310982438E+00
          0                 3           1             4    7     1       0.1191360966E-03       4    7    1         0.6609439402E-02      0.1616754962E-01
          0                 4           1             4    7     1      -0.4734596431E-05       4    7    1        -0.2699867778E-03      0.6606253405E-03

    ------------------------------------------------
       NWT REQUIRED            4 OUTER ITERATIONS 
       AND A TOTAL OF          6 INNER ITERATIONS.
    ------------------------------------------------

 NO OUTPUT CONTROL FOR STRESS PERIOD   14   TIME STEP    1
 
 SOLVING FOR HEAD 
                                                   Max.-Head-Change                         Max.-Flux-Residual
  Residual-Control   Outer-Iter.   Inner-Iter.     Column Row Layer    Maximum-Head-Change  Column Row Layer    Maximum-Flux-Residual          L2-NORM 
          0                 1           2             4    7     1       0.1782506458E-01       4    7    1         0.9357321803E+00      0.2302031956E+01
          0                 2           2             4    7     1      -0.1732959611E-02       4    7    1        -0.9352282652E-01      0.2300755893E+00
          0                 3           1             4    7     1       0.1179192046E-03       4    7    1         0.6541655337E-02      0.1609310249E-01
          0                 4           1             4    7     1      -0.4686235586E-05       4    7    1        -0.2672178675E-03      0.6572940767E-03

    ------------------------------------------------
       NWT REQUIRED            4 OUTER ITERATIONS 
       AND A TOTAL OF          6 INNER ITERATIONS.
    ------------------------------------------------

 NO OUTPUT CONTROL FOR STRESS PERIOD   14   TIME STEP    2
 
 SOLVING FOR HEAD 
                                                   Max.-Head-Change                         Max.-Flux-Residual
  Residual-Control   Outer-Iter.   Inner-Iter.     Column Row Layer    Maximum-Head-Change  Column Row Layer    Maximum-Flux-Residual          L2-NORM 
          0                 1           2             4    7     1       0.1764356182E-01       4    7    1         0.9261655158E+00      0.2281264146E+01
          0                 2           2             4    7     1      -0.1715313751E-02       4    7    1        -0.9256666821E-01      0.2280046711E+00
          0                 3           1             4    7     1       0.1167184917E-03       4    7    1         0.6474774638E-02      0.1594872639E-01
          0                 4           1             4    7     1      -0.4638518189E-05       4    7    1        -0.2644858819E-03      0.6515031048E-03

    ------------------------------------------------
       NWT REQUIRED            4 OUTER ITERATIONS 
       AND A TOTAL OF          6 INNER ITERATIONS.
    ------------------------------------------------

 NO OUTPUT CONTROL FOR STRESS PERIOD   14   TIME STEP    3
 
 SOLVING FOR HEAD 
                                                   Max.-Head-Change                         Max.-Flux-Residual
  Residual-Control   Outer-Iter.   Inner-Iter.     Column Row Layer    Maximum-Head-Change  Column Row Layer    Maximum-Flux-Residual          L2-NORM 
          0                 1           2             4    7     1       0.1746472830E-01       4    7    1         0.9167401003E+00      0.2260871202E+01
          0                 2           2             4    7     1      -0.1697927400E-02       4    7    1        -0.9162462745E-01      0.2259705597E+00
          0                 3           1             4    7     1       0.1155354366E-03       4    7    1         0.6408881409E-02      0.1580689433E-01
          0                 4           1             4    7     1      -0.4591501919E-05       4    7    1        -0.2617942100E-03      0.6456945784E-03

    ------------------------------------------------
       NWT REQUIRED            4 OUTER ITERATIONS 
       AND A TOTAL OF          6 INNER ITERATIONS.
    ------------------------------------------------

 NO OUTPUT CONTROL FOR STRESS PERIOD   14   TIME STEP    4
 
 SOLVING FOR HEAD 
                                                   Max.-Head-Change                         Max.-Flux-Residual
  Residual-Control   Outer-Iter.   Inner-Iter.     Column Row Layer    Maximum-Head-Change  Column Row Layer    Maximum-Flux-Residual          L2-NORM 
          0                 1           2             4    7     1       0.1728836806E-01       4    7    1         0.9074457246E+00      0.2240822085E+01
          0                 2           2             4    7     1      -0.1680781505E-02       4    7    1        -0.9069568386E-01      0.2239703056E+00
          0                 3           1             4    7     1       0.1143687436E-03       4    7    1         0.6343904302E-02      0.1566729049E-01
          0                 4           1             4    7     1      -0.4545136350E-05       4    7    1        -0.2591399680E-03      0.6401729827E-03

    ------------------------------------------------
       NWT REQUIRED            4 OUTER ITERATIONS 
       AND A TOTAL OF          6 INNER ITERATIONS.
    ------------------------------------------------

 NO OUTPUT CONTROL FOR STRESS PERIOD   14   TIME STEP    5
 
 SOLVING FOR HEAD 
                                                   Max.-Head-Change                         Max.-Flux-Residual
  Residual-Control   Outer-Iter.   Inner-Iter.     Column Row Layer    Maximum-Head-Change  Column Row Layer    Maximum-Flux-Residual          L2-NORM 
          0                 1           2             4    7     1       0.1711456467E-01       4    7    1         0.8982869409E+00      0.2221103047E+01
          0                 2           2             4    7     1      -0.1663884191E-02       4    7    1        -0.8978029238E-01      0.2220024913E+00
          0                 3           1             4    7     1       0.1132189653E-03       4    7    1         0.6279875139E-02      0.1552982971E-01
          0                 4           1             4    7     1      -0.4499442436E-05       4    7    1        -0.2565244404E-03      0.6345337078E-03

    ------------------------------------------------
       NWT REQUIRED            4 OUTER ITERATIONS 
       AND A TOTAL OF          6 INNER ITERATIONS.
    ------------------------------------------------

 NO OUTPUT CONTROL FOR STRESS PERIOD   14   TIME STEP    6
 
 SOLVING FOR HEAD 
                                                   Max.-Head-Change                         Max.-Flux-Residual
  Residual-Control   Outer-Iter.   Inner-Iter.     Column Row Layer    Maximum-Head-Change  Column Row Layer    Maximum-Flux-Residual          L2-NORM 
          0                 1           2             4    7     1       0.1694312906E-01       4    7    1         0.8892533688E+00      0.2201697504E+01
          0                 2           2             4    7     1      -0.1647217076E-02       4    7    1        -0.8887741550E-01      0.2200657677E+00
          0                 3           1             4    7     1       0.1120848507E-03       4    7    1         0.6216721316E-02      0.1539468042E-01
          0                 4           1             4    7     1      -0.4454371707E-05       4    7    1        -0.2539446768E-03      0.6289527644E-03

    ------------------------------------------------
       NWT REQUIRED            4 OUTER ITERATIONS 
       AND A TOTAL OF          6 INNER ITERATIONS.
    ------------------------------------------------

 NO OUTPUT CONTROL FOR STRESS PERIOD   14   TIME STEP    7
 
 SOLVING FOR HEAD 
                                                   Max.-Head-Change                         Max.-Flux-Residual
  Residual-Control   Outer-Iter.   Inner-Iter.     Column Row Layer    Maximum-Head-Change  Column Row Layer    Maximum-Flux-Residual          L2-NORM 
          0                 1           2             4    7     1       0.1677401673E-01       4    7    1         0.8803425615E+00      0.2182593707E+01
          0                 2           2             4    7     1      -0.1630775833E-02       4    7    1        -0.8798680870E-01      0.2181588418E+00
          0                 3           1             4    7     1       0.1109661060E-03       4    7    1         0.6154425775E-02      0.1526155885E-01
          0                 4           1             4    7     1      -0.4409911500E-05       4    7    1        -0.2513999771E-03      0.6236129292E-03

    ------------------------------------------------
       NWT REQUIRED            4 OUTER ITERATIONS 
       AND A TOTAL OF          6 INNER ITERATIONS.
    ------------------------------------------------

 NO OUTPUT CONTROL FOR STRESS PERIOD   14   TIME STEP    8
 
 SOLVING FOR HEAD 
                                                   Max.-Head-Change                         Max.-Flux-Residual
  Residual-Control   Outer-Iter.   Inner-Iter.     Column Row Layer    Maximum-Head-Change  Column Row Layer    Maximum-Flux-Residual          L2-NORM 
          0                 1           2             4    7     1       0.1660731569E-01       4    7    1         0.8715595702E+00      0.2163773407E+01
          0                 2           2             4    7     1      -0.1614569020E-02       4    7    1        -0.8710897681E-01      0.2162798811E+00
          0                 3           1             4    7     1       0.1098633129E-03       4    7    1         0.6093023804E-02      0.1513022217E-01
          0                 4           1             4    7     1      -0.4366085301E-05       4    7    1        -0.2488917817E-03      0.6182762190E-03

    ------------------------------------------------
       NWT REQUIRED            4 OUTER ITERATIONS 
       AND A TOTAL OF          6 INNER ITERATIONS.
    ------------------------------------------------

 NO OUTPUT CONTROL FOR STRESS PERIOD   14   TIME STEP    9
 
 SOLVING FOR HEAD 
                                                   Max.-Head-Change                         Max.-Flux-Residual
  Residual-Control   Outer-Iter.   Inner-Iter.     Column Row Layer    Maximum-Head-Change  Column Row Layer    Maximum-Flux-Residual          L2-NORM 
          0                 1           2             4    7     1       0.1644284318E-01       4    7    1         0.8628942423E+00      0.2145229262E+01
          0                 2           2             4    7     1      -0.1598578869E-02       4    7    1        -0.8624290511E-01      0.2144282419E+00
          0                 3           1             4    7     1       0.1087752628E-03       4    7    1         0.6032444444E-02      0.1500093559E-01
          0                 4           1             4    7     1      -0.4322844871E-05       4    7    1        -0.2464171807E-03      0.6129056272E-03

    ------------------------------------------------
       NWT REQUIRED            4 OUTER ITERATIONS 
       AND A TOTAL OF          6 INNER ITERATIONS.
    ------------------------------------------------

 NO OUTPUT CONTROL FOR STRESS PERIOD   14   TIME STEP   10
 
 SOLVING FOR HEAD 
                                                   Max.-Head-Change                         Max.-Flux-Residual
  Residual-Control   Outer-Iter.   Inner-Iter.     Column Row Layer    Maximum-Head-Change  Column Row Layer    Maximum-Flux-Residual          L2-NORM 
          0                 1           2             4    7     1       0.1628069074E-01       4    7    1         0.8543518185E+00      0.2126956570E+01
          0                 2           2             4    7     1      -0.1582814277E-02       4    7    1        -0.8538911740E-01      0.2126035816E+00
          0                 3           1             4    7     1       0.1077025607E-03       4    7    1         0.5972724291E-02      0.1487336934E-01
          0                 4           1             4    7     1      -0.4280214617E-05       4    7    1        -0.2439776927E-03      0.6076947605E-03

    ------------------------------------------------
       NWT REQUIRED            4 OUTER ITERATIONS 
       AND A TOTAL OF          6 INNER ITERATIONS.
    ------------------------------------------------

 NO OUTPUT CONTROL FOR STRESS PERIOD   14   TIME STEP   11
 
 SOLVING FOR HEAD 
                                                   Max.-Head-Change                         Max.-Flux-Residual
  Residual-Control   Outer-Iter.   Inner-Iter.     Column Row Layer    Maximum-Head-Change  Column Row Layer    Maximum-Flux-Residual          L2-NORM 
          0                 1           2             4    7     1       0.1612080926E-01       4    7    1         0.8459296864E+00      0.2108935487E+01
          0                 2           2             4    7     1      -0.1567270472E-02       4    7    1        -0.8454735258E-01      0.2108037369E+00
          0                 3           1             4    7     1       0.1066448820E-03       4    7    1         0.5913845122E-02      0.1474764104E-01
          0                 4           1             4    7     1      -0.4238181070E-05       4    7    1        -0.2415725417E-03      0.6026006925E-03

    ------------------------------------------------
       NWT REQUIRED            4 OUTER ITERATIONS 
       AND A TOTAL OF          6 INNER ITERATIONS.
    ------------------------------------------------

 NO OUTPUT CONTROL FOR STRESS PERIOD   14   TIME STEP   12
 
 SOLVING FOR HEAD 
                                                   Max.-Head-Change                         Max.-Flux-Residual
  Residual-Control   Outer-Iter.   Inner-Iter.     Column Row Layer    Maximum-Head-Change  Column Row Layer    Maximum-Flux-Residual          L2-NORM 
          0                 1           2             4    7     1       0.1596301851E-01       4    7    1         0.8376179412E+00      0.2091169075E+01
          0                 2           2             4    7     1      -0.1551929930E-02       4    7    1        -0.8371662064E-01      0.2090291373E+00
          0                 3           1             4    7     1       0.1056010345E-03       4    7    1         0.5855737672E-02      0.1462356940E-01
          0                 4           1             4    7     1      -0.4196697142E-05       4    7    1        -0.2391989137E-03      0.5975024762E-03

    ------------------------------------------------
       NWT REQUIRED            4 OUTER ITERATIONS 
       AND A TOTAL OF          6 INNER ITERATIONS.
    ------------------------------------------------

 NO OUTPUT CONTROL FOR STRESS PERIOD   14   TIME STEP   13
 
 SOLVING FOR HEAD 
                                                   Max.-Head-Change                         Max.-Flux-Residual
  Residual-Control   Outer-Iter.   Inner-Iter.     Column Row Layer    Maximum-Head-Change  Column Row Layer    Maximum-Flux-Residual          L2-NORM 
          0                 1           2             4    7     1       0.1580728026E-01       4    7    1         0.8294145967E+00      0.2073635710E+01
          0                 2           2             4    7     1      -0.1536788936E-02       4    7    1        -0.8289672309E-01      0.2072778860E+00
          0                 3           1             4    7     1       0.1045707652E-03       4    7    1         0.5798388066E-02      0.1450118120E-01
          0                 4           1             4    7     1      -0.4155753277E-05       4    7    1        -0.2368562491E-03      0.5925220030E-03

    ------------------------------------------------
       NWT REQUIRED            4 OUTER ITERATIONS 
       AND A TOTAL OF          6 INNER ITERATIONS.
    ------------------------------------------------

 NO OUTPUT CONTROL FOR STRESS PERIOD   14   TIME STEP   14
 
 SOLVING FOR HEAD 
                                                   Max.-Head-Change                         Max.-Flux-Residual
  Residual-Control   Outer-Iter.   Inner-Iter.     Column Row Layer    Maximum-Head-Change  Column Row Layer    Maximum-Flux-Residual          L2-NORM 
          0                 1           2             4    7     1       0.1565382736E-01       4    7    1         0.8213323895E+00      0.2056352456E+01
          0                 2           2             4    7     1      -0.1521870125E-02       4    7    1        -0.8208893295E-01      0.2055513808E+00
          0                 3           1             4    7     1       0.1035556142E-03       4    7    1         0.5741885322E-02      0.1438050945E-01
          0                 4           1             4    7     1      -0.4115410033E-05       4    7    1        -0.2345481848E-03      0.5876473887E-03

    ------------------------------------------------
       NWT REQUIRED            4 OUTER ITERATIONS 
       AND A TOTAL OF          6 INNER ITERATIONS.
    ------------------------------------------------

 NO OUTPUT CONTROL FOR STRESS PERIOD   14   TIME STEP   15
 
 SOLVING FOR HEAD 
                                                   Max.-Head-Change                         Max.-Flux-Residual
  Residual-Control   Outer-Iter.   Inner-Iter.     Column Row Layer    Maximum-Head-Change  Column Row Layer    Maximum-Flux-Residual          L2-NORM 
          0                 1           2             4    7     1       0.1550234219E-01       4    7    1         0.8133539550E+00      0.2039296599E+01
          0                 2           2             4    7     1      -0.1507142621E-02       4    7    1        -0.8129151460E-01      0.2038474902E+00
          0                 3           1             4    7     1       0.1025534813E-03       4    7    1         0.5686108086E-02      0.1426137775E-01
          0                 4           1             4    7     1      -0.4075584403E-05       4    7    1        -0.2322697583E-03      0.5827450456E-03

    ------------------------------------------------
       NWT REQUIRED            4 OUTER ITERATIONS 
       AND A TOTAL OF          6 INNER ITERATIONS.
    ------------------------------------------------

 NO OUTPUT CONTROL FOR STRESS PERIOD   14   TIME STEP   16
 
 SOLVING FOR HEAD 
                                                   Max.-Head-Change                         Max.-Flux-Residual
  Residual-Control   Outer-Iter.   Inner-Iter.     Column Row Layer    Maximum-Head-Change  Column Row Layer    Maximum-Flux-Residual          L2-NORM 
          0                 1           2             4    7     1       0.1535292353E-01       4    7    1         0.8054849042E+00      0.2022458753E+01
          0                 2           2             4    7     1      -0.1492640466E-02       4    7    1        -0.8050502891E-01      0.2021977808E+00
          0                 3           1             4    7     1       0.1015666807E-03       4    7    1         0.5631095462E-02      0.1414606739E-01
          0                 4           1             4    7     1      -0.4036367567E-05       4    7    1        -0.2300225419E-03      0.5780521357E-03

    ------------------------------------------------
       NWT REQUIRED            4 OUTER ITERATIONS 
       AND A TOTAL OF          6 INNER ITERATIONS.
    ------------------------------------------------

 NO OUTPUT CONTROL FOR STRESS PERIOD   14   TIME STEP   17
 
 SOLVING FOR HEAD 
                                                   Max.-Head-Change                         Max.-Flux-Residual
  Residual-Control   Outer-Iter.   Inner-Iter.     Column Row Layer    Maximum-Head-Change  Column Row Layer    Maximum-Flux-Residual          L2-NORM 
          0                 1           2             4    7     1       0.1520542551E-01       4    7    1         0.7977216953E+00      0.2005812151E+01
          0                 2           2             4    7     1      -0.1478276176E-02       4    7    1        -0.7972912226E-01      0.2005022364E+00
          0                 3           1             4    7     1       0.1005892639E-03       4    7    1         0.5576823002E-02      0.1402756842E-01
          0                 4           1             4    7     1      -0.3997523860E-05       4    7    1        -0.2278055799E-03      0.5732656101E-03

    ------------------------------------------------
       NWT REQUIRED            4 OUTER ITERATIONS 
       AND A TOTAL OF          6 INNER ITERATIONS.
    ------------------------------------------------

 NO OUTPUT CONTROL FOR STRESS PERIOD   14   TIME STEP   18
 
 SOLVING FOR HEAD 
                                                   Max.-Head-Change                         Max.-Flux-Residual
  Residual-Control   Outer-Iter.   Inner-Iter.     Column Row Layer    Maximum-Head-Change  Column Row Layer    Maximum-Flux-Residual          L2-NORM 
          0                 1           2             4    7     1       0.1505975848E-01       4    7    1         0.7900533134E+00      0.1989353991E+01
          0                 2           2             4    7     1      -0.1464114323E-02       4    7    1        -0.7896269316E-01      0.1988577712E+00
          0                 3           1             4    7     1       0.9962562059E-04       4    7    1         0.5523213385E-02      0.1391258760E-01

    ------------------------------------------------
       NWT REQUIRED            3 OUTER ITERATIONS 
       AND A TOTAL OF          5 INNER ITERATIONS.
    ------------------------------------------------

 NO OUTPUT CONTROL FOR STRESS PERIOD   14   TIME STEP   19
 
 SOLVING FOR HEAD 
                                                   Max.-Head-Change                         Max.-Flux-Residual
  Residual-Control   Outer-Iter.   Inner-Iter.     Column Row Layer    Maximum-Head-Change  Column Row Layer    Maximum-Flux-Residual          L2-NORM 
          0                 1           2             4    7     1       0.1491609225E-01       4    7    1         0.7824906206E+00      0.1973097970E+01
          0                 2           2             4    7     1      -0.1450146989E-02       4    7    1        -0.7820682739E-01      0.1972335156E+00
          0                 3           1             4    7     1       0.9867521315E-04       4    7    1         0.5470342634E-02      0.1379895357E-01

    ------------------------------------------------
       NWT REQUIRED            3 OUTER ITERATIONS 
       AND A TOTAL OF          5 INNER ITERATIONS.
    ------------------------------------------------

 NO OUTPUT CONTROL FOR STRESS PERIOD   14   TIME STEP   20
 
 SOLVING FOR HEAD 
                                                   Max.-Head-Change                         Max.-Flux-Residual
  Residual-Control   Outer-Iter.   Inner-Iter.     Column Row Layer    Maximum-Head-Change  Column Row Layer    Maximum-Flux-Residual          L2-NORM 
          0                 1           2             4    7     1       0.1477416773E-01       4    7    1         0.7750196409E+00      0.1957054626E+01
          0                 2           2             4    7     1      -0.1436348987E-02       4    7    1        -0.7746012809E-01      0.1956304466E+00
          0                 3           1             4    7     1       0.9773632780E-04       4    7    1         0.5418113062E-02      0.1368687491E-01

    ------------------------------------------------
       NWT REQUIRED            3 OUTER ITERATIONS 
       AND A TOTAL OF          5 INNER ITERATIONS.
    ------------------------------------------------

 NO OUTPUT CONTROL FOR STRESS PERIOD   14   TIME STEP   21
 
 SOLVING FOR HEAD 
                                                   Max.-Head-Change                         Max.-Flux-Residual
  Residual-Control   Outer-Iter.   Inner-Iter.     Column Row Layer    Maximum-Head-Change  Column Row Layer    Maximum-Flux-Residual          L2-NORM 
          0                 1           2             4    7     1       0.1463409299E-01       4    7    1         0.7676463268E+00      0.1941209831E+01
          0                 2           2             4    7     1      -0.1422730822E-02       4    7    1        -0.7672319024E-01      0.1940471627E+00
          0                 3           1             4    7     1       0.9680967987E-04       4    7    1         0.5366566279E-02      0.1357616761E-01

    ------------------------------------------------
       NWT REQUIRED            3 OUTER ITERATIONS 
       AND A TOTAL OF          5 INNER ITERATIONS.
    ------------------------------------------------

 NO OUTPUT CONTROL FOR STRESS PERIOD   14   TIME STEP   22
 
 SOLVING FOR HEAD 
                                                   Max.-Head-Change                         Max.-Flux-Residual
  Residual-Control   Outer-Iter.   Inner-Iter.     Column Row Layer    Maximum-Head-Change  Column Row Layer    Maximum-Flux-Residual          L2-NORM 
          0                 1           2             4    7     1       0.1449584440E-01       4    7    1         0.7603689197E+00      0.1925568400E+01
          0                 2           2             4    7     1      -0.1409290197E-02       4    7    1        -0.7599583798E-01      0.1924841742E+00
          0                 3           1             4    7     1       0.9589511211E-04       4    7    1         0.5315689964E-02      0.1346686430E-01

    ------------------------------------------------
       NWT REQUIRED            3 OUTER ITERATIONS 
       AND A TOTAL OF          5 INNER ITERATIONS.
    ------------------------------------------------

 NO OUTPUT CONTROL FOR STRESS PERIOD   14   TIME STEP   23
 
 SOLVING FOR HEAD 
                                                   Max.-Head-Change                         Max.-Flux-Residual
  Residual-Control   Outer-Iter.   Inner-Iter.     Column Row Layer    Maximum-Head-Change  Column Row Layer    Maximum-Flux-Residual          L2-NORM 
          0                 1           2             4    7     1       0.1435938671E-01       4    7    1         0.7531861959E+00      0.1910122379E+01
          0                 2           2             4    7     1      -0.1396023687E-02       4    7    1        -0.7527794908E-01      0.1909406197E+00
          0                 3           1             4    7     1       0.9499239220E-04       4    7    1         0.5265475605E-02      0.1335889383E-01

    ------------------------------------------------
       NWT REQUIRED            3 OUTER ITERATIONS 
       AND A TOTAL OF          5 INNER ITERATIONS.
    ------------------------------------------------

 NO OUTPUT CONTROL FOR STRESS PERIOD   14   TIME STEP   24
 
 SOLVING FOR HEAD 
                                                   Max.-Head-Change                         Max.-Flux-Residual
  Residual-Control   Outer-Iter.   Inner-Iter.     Column Row Layer    Maximum-Head-Change  Column Row Layer    Maximum-Flux-Residual          L2-NORM 
          0                 1           2             4    7     1       0.1422469219E-01       4    7    1         0.7460963267E+00      0.1894874100E+01
          0                 2           2             4    7     1      -0.1382928592E-02       4    7    1        -0.7456934072E-01      0.1894168738E+00
          0                 3           1             4    7     1       0.9410133603E-04       4    7    1         0.5215910374E-02      0.1325238862E-01

    ------------------------------------------------
       NWT REQUIRED            3 OUTER ITERATIONS 
       AND A TOTAL OF          5 INNER ITERATIONS.
    ------------------------------------------------

 NO OUTPUT CONTROL FOR STRESS PERIOD   14   TIME STEP   25
 
 SOLVING FOR HEAD 
                                                   Max.-Head-Change                         Max.-Flux-Residual
  Residual-Control   Outer-Iter.   Inner-Iter.     Column Row Layer    Maximum-Head-Change  Column Row Layer    Maximum-Flux-Residual          L2-NORM 
          0                 1           2             4    7     1       0.1409172970E-01       4    7    1         0.7390978747E+00      0.1879805856E+01
          0                 2           2             4    7     1      -0.1370001888E-02       4    7    1        -0.7386986927E-01      0.1879109850E+00
          0                 3           1             4    7     1       0.9322173852E-04       4    7    1         0.5166984276E-02      0.1314704431E-01

    ------------------------------------------------
       NWT REQUIRED            3 OUTER ITERATIONS 
       AND A TOTAL OF          5 INNER ITERATIONS.
    ------------------------------------------------

 NO OUTPUT CONTROL FOR STRESS PERIOD   14   TIME STEP   26
 
 SOLVING FOR HEAD 
                                                   Max.-Head-Change                         Max.-Flux-Residual
  Residual-Control   Outer-Iter.   Inner-Iter.     Column Row Layer    Maximum-Head-Change  Column Row Layer    Maximum-Flux-Residual          L2-NORM 
          0                 1           2             4    7     1       0.1396047551E-01       4    7    1         0.7321892249E+00      0.1864924184E+01
          0                 2           2             4    7     1      -0.1357241267E-02       4    7    1        -0.7317937329E-01      0.1864237829E+00
          0                 3           1             4    7     1       0.9235344203E-04       4    7    1         0.5118685973E-02      0.1304302856E-01

    ------------------------------------------------
       NWT REQUIRED            3 OUTER ITERATIONS 
       AND A TOTAL OF          5 INNER ITERATIONS.
    ------------------------------------------------

 NO OUTPUT CONTROL FOR STRESS PERIOD   14   TIME STEP   27
 
 SOLVING FOR HEAD 
                                                   Max.-Head-Change                         Max.-Flux-Residual
  Residual-Control   Outer-Iter.   Inner-Iter.     Column Row Layer    Maximum-Head-Change  Column Row Layer    Maximum-Flux-Residual          L2-NORM 
          0                 1           2             4    7     1       0.1383089412E-01       4    7    1         0.7253691478E+00      0.1850225579E+01
          0                 2           2             4    7     1      -0.1344643277E-02       4    7    1        -0.7249772993E-01      0.1849548395E+00
          0                 3           1             4    7     1       0.9149621168E-04       4    7    1         0.5071006883E-02      0.1294029591E-01

    ------------------------------------------------
       NWT REQUIRED            3 OUTER ITERATIONS 
       AND A TOTAL OF          5 INNER ITERATIONS.
    ------------------------------------------------

 NO OUTPUT CONTROL FOR STRESS PERIOD   14   TIME STEP   28
 
 SOLVING FOR HEAD 
                                                   Max.-Head-Change                         Max.-Flux-Residual
  Residual-Control   Outer-Iter.   Inner-Iter.     Column Row Layer    Maximum-Head-Change  Column Row Layer    Maximum-Flux-Residual          L2-NORM 
          0                 1           2             4    7     1       0.1370295886E-01       4    7    1         0.7186358024E+00      0.1835703361E+01
          0                 2           2             4    7     1      -0.1332205326E-02       4    7    1        -0.7182475514E-01      0.1835034930E+00
          0                 3           1             4    7     1       0.9064987102E-04       4    7    1         0.5023934141E-02      0.1283878919E-01

    ------------------------------------------------
       NWT REQUIRED            3 OUTER ITERATIONS 
       AND A TOTAL OF          5 INNER ITERATIONS.
    ------------------------------------------------

 NO OUTPUT CONTROL FOR STRESS PERIOD   14   TIME STEP   29
 
 SOLVING FOR HEAD 
                                                   Max.-Head-Change                         Max.-Flux-Residual
  Residual-Control   Outer-Iter.   Inner-Iter.     Column Row Layer    Maximum-Head-Change  Column Row Layer    Maximum-Flux-Residual          L2-NORM 
          0                 1           2             4    7     1       0.1357664499E-01       4    7    1         0.7119878055E+00      0.1821354630E+01
          0                 2           2             4    7     1      -0.1319925009E-02       4    7    1        -0.7116031070E-01      0.1820694320E+00
          0                 3           1             4    7     1       0.8981425662E-04       4    7    1         0.4977458073E-02      0.1273847804E-01

    ------------------------------------------------
       NWT REQUIRED            3 OUTER ITERATIONS 
       AND A TOTAL OF          5 INNER ITERATIONS.
    ------------------------------------------------

 NO OUTPUT CONTROL FOR STRESS PERIOD   14   TIME STEP   30



 STREAM LISTING     PERIOD     14   STEP       30

 LAYER ROW COL. STREAM  RCH.  FLOW INTO     FLOW TO   FLOW OUT OF   OVRLND.     DIRECT     STREAM       STREAM     STREAM     STREAM   STREAMBED  STREAMBED
                SEG.NO.  NO.  STRM. RCH.    AQUIFER    STRM. RCH.    RUNOFF     PRECIP       ET          HEAD       DEPTH      WIDTH   CONDCTNC.   GRADIENT

   1    1    1     1     1    1.9000E+01  2.1427E-01   1.8786E+01  0.000E+00  0.000E+00  0.000E+00  1.09413E+03  1.082E+00  1.166E+01  5.249E-02  1.361E+00
   1    2    2     1     2    1.8786E+01  3.3055E-01   1.8455E+01  0.000E+00  0.000E+00  0.000E+00  1.08914E+03  1.077E+00  1.158E+01  8.107E-02  1.359E+00
   1    3    3     1     3    1.8455E+01  2.8065E-01   1.8175E+01  0.000E+00  0.000E+00  0.000E+00  1.08349E+03  1.072E+00  1.149E+01  6.892E-02  1.357E+00
   1    3    4     1     4    1.8175E+01  2.5740E-01   1.7917E+01  0.000E+00  0.000E+00  0.000E+00  1.07848E+03  1.068E+00  1.140E+01  6.328E-02  1.356E+00
   1    4    5     2     1    1.5917E+01  3.0543E-01   1.5612E+01  0.000E+00  0.000E+00  0.000E+00  1.07285E+03  9.157E-01  1.200E+01  7.800E-02  1.305E+00
   1    5    6     2     2    1.5612E+01  2.3438E-01   1.5378E+01  0.000E+00  0.000E+00  0.000E+00  1.06742E+03  9.063E-01  1.200E+01  6.000E-02  1.302E+00
   1    6    6     2     3    1.5378E+01  2.3388E-01   1.5144E+01  0.000E+00  0.000E+00  0.000E+00  1.06269E+03  8.980E-01  1.200E+01  6.000E-02  1.299E+00
   1    7    6     2     4    1.5144E+01  2.3339E-01   1.4910E+01  0.000E+00  0.000E+00  0.000E+00  1.05797E+03  8.898E-01  1.200E+01  6.000E-02  1.297E+00
   1    8    6     2     5    1.4910E+01  2.3289E-01   1.4677E+01  0.000E+00  0.000E+00  0.000E+00  1.05324E+03  8.814E-01  1.200E+01  6.000E-02  1.294E+00
   1    3    5     3     1    2.0000E+00  2.8252E-01   1.7175E+00  0.000E+00  0.000E+00  0.000E+00  1.07555E+03  1.909E+00  9.636E+00  7.227E-02  1.955E+00
   1    3    6     3     2    1.7175E+00  2.4905E-01   1.4684E+00  0.000E+00  0.000E+00  0.000E+00  1.07264E+03  1.727E+00  8.909E+00  6.682E-02  1.864E+00
   1    3    7     3     3    1.4684E+00  1.9718E-01   1.2712E+00  0.000E+00  0.000E+00  0.000E+00  1.06987E+03  1.555E+00  8.218E+00  5.547E-02  1.777E+00
   1    4    8     3     4    1.2712E+00  2.2567E-01   1.0456E+00  0.000E+00  0.000E+00  0.000E+00  1.06682E+03  1.364E+00  7.455E+00  6.709E-02  1.682E+00
   1    5    8     3     5    1.0456E+00  1.5790E-01   8.8768E-01  0.000E+00  0.000E+00  0.000E+00  1.06362E+03  1.164E+00  6.655E+00  4.991E-02  1.582E+00
   1    6    8     3     6    8.8768E-01  5.5980E-02   8.3170E-01  0.000E+00  0.000E+00  0.000E+00  1.06158E+03  1.036E+00  6.145E+00  1.844E-02  1.518E+00
   1    5   10     4     1    1.0000E+01  9.0919E-02   9.9091E+00  0.000E+00  0.000E+00  0.000E+00  1.07836E+03  6.368E-01  1.000E+01  2.500E-02  1.212E+00
   1    5    9     4     2    9.9091E+00  1.8158E-01   9.7275E+00  0.000E+00  0.000E+00  0.000E+00  1.07154E+03  6.315E-01  1.000E+01  5.000E-02  1.211E+00
   1    6    8     4     3    9.7275E+00  1.2689E-01   9.6006E+00  0.000E+00  0.000E+00  0.000E+00  1.06381E+03  6.256E-01  1.000E+01  3.500E-02  1.209E+00
   1    6    8     5     1    1.0432E+01  2.2686E-01   1.0205E+01  0.000E+00  0.000E+00  0.000E+00  1.05868E+03  6.790E-01  1.542E+01  6.166E-02  1.226E+00
   1    7    7     5     2    1.0205E+01  2.7894E-01   9.9265E+00  0.000E+00  0.000E+00  0.000E+00  1.05417E+03  6.732E-01  1.519E+01  7.594E-02  1.224E+00
   1    8    7     5     3    9.9265E+00  1.9221E-01   9.7343E+00  0.000E+00  0.000E+00  0.000E+00  1.04992E+03  6.676E-01  1.497E+01  5.241E-02  1.223E+00
   1    8    6     5     4    9.7343E+00  1.3577E-01   9.5985E+00  0.000E+00  0.000E+00  0.000E+00  1.04691E+03  6.637E-01  1.482E+01  3.706E-02  1.221E+00
   1    9    6     6     1    2.4276E+01  2.5176E-01   2.4024E+01  0.000E+00  0.000E+00  0.000E+00  1.04392E+03  1.196E+00  1.200E+01  6.000E-02  1.399E+00
   1   10    7     6     2    2.4024E+01  2.5131E-01   2.3773E+01  0.000E+00  0.000E+00  0.000E+00  1.03937E+03  1.188E+00  1.200E+01  6.000E-02  1.396E+00
   1   11    7     6     3    2.3773E+01  2.5086E-01   2.3522E+01  0.000E+00  0.000E+00  0.000E+00  1.03482E+03  1.181E+00  1.200E+01  6.000E-02  1.394E+00
   1   12    7     6     4    2.3522E+01  2.5041E-01   2.3272E+01  0.000E+00  0.000E+00  0.000E+00  1.03026E+03  1.173E+00  1.200E+01  6.000E-02  1.391E+00
   1   13    7     6     5    2.3272E+01 -1.3638E-02   2.3285E+01  0.000E+00  0.000E+00  0.000E+00  1.02708E+03  1.170E+00  1.200E+01  2.400E-01 -1.894E-02
   1   14    9     7     1    1.5000E+02  1.3295E+00   1.4867E+02  0.000E+00  0.000E+00  0.000E+00  1.03987E+03  2.288E+00  5.529E+01  5.593E-01  7.923E-01
   1   13    8     7     2    1.4867E+02  1.8067E+00   1.4686E+02  0.000E+00  0.000E+00  0.000E+00  1.03478E+03  2.279E+00  5.526E+01  6.148E-01  9.796E-01
   1   13    7     7     3    1.4686E+02  1.4265E+00   1.4544E+02  0.000E+00  0.000E+00  0.000E+00  1.02969E+03  2.271E+00  5.522E+01  5.585E-01  8.514E-01
   1   13    6     8     1    1.6872E+02  8.7786E-01   1.6784E+02  0.000E+00  0.000E+00  0.000E+00  1.02482E+03  2.941E+00  4.264E+01  4.346E-01  6.734E-01
   1   13    5     8     2    1.6784E+02  1.4516E-01   1.6770E+02  0.000E+00  0.000E+00  0.000E+00  1.01856E+03  2.938E+00  4.260E+01  4.341E-01  1.115E-01
   1   13    4     8     3    1.6770E+02 -2.5170E+00   1.7022E+02  0.000E+00  0.000E+00  0.000E+00  1.01232E+03  2.945E+00  4.271E+01  4.352E+00 -1.928E-01
   1   13    3     8     4    1.7022E+02 -3.7047E+00   1.7392E+02  0.000E+00  0.000E+00  0.000E+00  1.00609E+03  2.966E+00  4.300E+01  4.382E+00 -2.818E-01
   1   13    2     8     5    1.7392E+02 -2.6045E+00   1.7653E+02  0.000E+00  0.000E+00  0.000E+00  9.99861E+02  2.986E+00  4.330E+01  4.412E+00 -1.968E-01
   1   13    1     8     6    1.7653E+02 -2.0003E+00   1.7853E+02  0.000E+00  0.000E+00  0.000E+00  9.94876E+02  3.001E+00  4.351E+01  2.660E+00 -2.506E-01





UNSATURATED ZONE PACKAGE VOLUMETRIC BUDGET FOR  TIME STEP    30 STRESS PERIOD   14
  ------------------------------------------------------------------------------



     CUMULATIVE VOLUMES      L**3       RATES FOR THIS TIME STEP      L**3/T
     ------------------                 ------------------------

           IN:                                      IN:
           ---                                      ---
        INFILTRATION =   464097308.8911          INFILTRATION =           0.8475

          OUT:                                     OUT:
          ----                                     ----
              UZF ET =   425322002.4376                UZF ET =           0.7500
        UZF RECHARGE =    37933706.2505          UZF RECHARGE =           0.0002

            IN - OUT =      841600.2030              IN - OUT =       9.7329E-02

          STORAGE:                                 STORAGE:
          --------                                 --------
      STORAGE CHANGE =      841600.7230        STORAGE CHANGE =       9.7329E-02

 PERCENT DISCREPANCY IS DIFFERENCE BETWEEN IN-OUT MINUS CHANGE IN STORAGE
 DIVIDED BY THE AVERAGE OF IN AND OUT TIMES 100

 PERCENT DISCREPANCY =           0.00     PERCENT DISCREPANCY =           0.00






1
  VOLUMETRIC BUDGET FOR AGRICULTURAL FIELDS AT  END OF TIME STEP   30, STRESS PERIOD  14
  ------------------------------------------------------------------------------

     CUMULATIVE VOLUMES      L**3       RATES FOR THIS TIME STEP      L**3/T
     ------------------                 ------------------------

           IN:                                      IN:
           ---                                      ---
               AG WELLS  =   435047680.0000                 AG WELLS  =           0.0000
      DIVERSION SEGMENTS =           0.0000        DIVERSION SEGMENTS =           0.0000
       IRRIGATION PONDS  =           0.0000         IRRIGATION PONDS  =           0.0000
           GW IRRIGATION =           0.0000             GW IRRIGATION =           0.0000
           SW IRRIGATION =           0.0000             SW IRRIGATION =           0.0000
        SYSTEM LOSSES GW =           0.0000          SYSTEM LOSSES GW =           0.0000
        SYSTEM LOSSES SW =           0.0000          SYSTEM LOSSES SW =           0.0000

                TOTAL IN =   435047680.0000                  TOTAL IN =           0.0000

          OUT:                                     OUT:
          ----                                     ----
               AG WELLS  =           0.0000                 AG WELLS  =           0.0000
      DIVERSION SEGMENTS =           0.0000        DIVERSION SEGMENTS =           0.0000
       IRRIGATION PONDS  =           0.0000         IRRIGATION PONDS  =           0.0000
           GW IRRIGATION =   435047680.0000             GW IRRIGATION =           0.0000
           SW IRRIGATION =           0.0000             SW IRRIGATION =           0.0000
        SYSTEM LOSSES GW =           0.0000          SYSTEM LOSSES GW =           0.0000
        SYSTEM LOSSES SW =           0.0000          SYSTEM LOSSES SW =           0.0000

               TOTAL OUT =   435047680.0000                 TOTAL OUT =           0.0000

                IN - OUT =           0.0000                  IN - OUT =           0.0000

     PERCENT DISCREPANCY =           0.00         PERCENT DISCREPANCY =           0.00



1
  VOLUMETRIC BUDGET FOR ENTIRE MODEL AT END OF TIME STEP   30, STRESS PERIOD  14
  ------------------------------------------------------------------------------

     CUMULATIVE VOLUMES      L**3       RATES FOR THIS TIME STEP      L**3/T
     ------------------                 ------------------------

           IN:                                      IN:
           ---                                      ---
             STORAGE     =   576467136.0000               STORAGE     =           5.7910
       CONSTANT HEAD     =           0.0000         CONSTANT HEAD     =           0.0000
     HEAD DEP BOUNDS     =     9783327.0000       HEAD DEP BOUNDS     =           0.2853
      STREAM LEAKAGE     =   424170368.0000        STREAM LEAKAGE     =          11.3143
        UZF RECHARGE     =    37933712.0000          UZF RECHARGE     =       1.7130E-04
               GW ET     =           0.0000                 GW ET     =           0.0000
     SURFACE LEAKAGE     =           0.0000       SURFACE LEAKAGE     =           0.0000
           AG WELLS      =           0.0000             AG WELLS      =           0.0000

                TOTAL IN =  1048354496.0000                  TOTAL IN =          17.3908

          OUT:                                     OUT:
          ----                                     ----
             STORAGE     =   232044192.0000               STORAGE     =           6.2609
       CONSTANT HEAD     =           0.0000         CONSTANT HEAD     =           0.0000
     HEAD DEP BOUNDS     =    10088086.0000       HEAD DEP BOUNDS     =           0.2898
      STREAM LEAKAGE     =   357419456.0000        STREAM LEAKAGE     =          10.8402
        UZF RECHARGE     =           0.0000          UZF RECHARGE     =           0.0000
               GW ET     =    13758168.0000                 GW ET     =           0.0000
     SURFACE LEAKAGE     =           0.0000       SURFACE LEAKAGE     =           0.0000
           AG WELLS      =   435047680.0000             AG WELLS      =           0.0000

               TOTAL OUT =  1048357568.0000                 TOTAL OUT =          17.3909

                IN - OUT =       -3072.0000                  IN - OUT =      -1.2970E-04

     PERCENT DISCREPANCY =          -0.00         PERCENT DISCREPANCY =          -0.00






         TIME SUMMARY AT END OF TIME STEP   30 IN STRESS PERIOD   14
                    SECONDS     MINUTES      HOURS       DAYS        YEARS
                    -----------------------------------------------------------
   TIME STEP LENGTH  87667.      1461.1      24.352      1.0147     2.77799E-03
 STRESS PERIOD TIME 2.63000E+06  43833.      730.56      30.440     8.33397E-02
         TOTAL TIME 3.42763E+07 5.71272E+05  9521.2      396.72      1.0862    
1
1
                            STRESS PERIOD NO.   15, LENGTH =   2630000.    
                            -----------------------------------------------

                              NUMBER OF TIME STEPS =    30

                               MULTIPLIER FOR DELT =     1.000

                            INITIAL TIME STEP SIZE =   87666.66    

 REUSING NON-PARAMETER GHB CELLS FROM LAST STRESS PERIOD

      2 GHB CELLS

 REUSING STREAM SEGMENT DATA FROM LAST STRESS PERIOD



            AREAL INFILTRATION RATE
 READING ON UNIT   19 WITH FORMAT: (FREE)              

            1           2           3           4           5           6           7           8           9          10
 ........................................................................................................................
   1   1.0000E-10  2.0000E-10   0.000       0.000       0.000       0.000       0.000       0.000       0.000       0.000    
   2   2.0000E-10  1.0000E-10  2.0000E-10   0.000       0.000      8.0000E-10  8.0000E-10  5.0000E-10   0.000       0.000    
   3    0.000      5.0000E-10  1.0000E-10  1.0000E-10  8.0000E-10  8.0000E-10  5.0000E-10  5.0000E-10   0.000       0.000    
   4   8.0000E-10  5.0000E-10  1.0000E-10  1.0000E-10  1.0000E-10  1.0000E-10  1.0000E-10  1.0000E-10  2.0000E-10   0.000    
   5   8.0000E-10  5.0000E-10  1.0000E-10  1.0000E-10  1.0000E-10  1.0000E-10  1.0000E-10  1.0000E-10  1.0000E-10  1.0000E-10
   6   8.0000E-10  5.0000E-10  5.0000E-10  2.0000E-10  2.0000E-10  1.0000E-10  1.0000E-10  1.0000E-10  1.0000E-10  5.0000E-10
   7   8.0000E-10  5.0000E-10  5.0000E-10  2.0000E-10  2.0000E-10  1.0000E-10  1.0000E-10  2.0000E-10  2.0000E-10   0.000    
   8    0.000      5.0000E-10  5.0000E-10  2.0000E-10  2.0000E-10  1.0000E-10  1.0000E-10  2.0000E-10  5.0000E-10   0.000    
   9    0.000      5.0000E-10  5.0000E-10  2.0000E-10  2.0000E-10  1.0000E-10  1.0000E-10  2.0000E-10  5.0000E-10   0.000    
  10    0.000      5.0000E-10  5.0000E-10  2.0000E-10  2.0000E-10  1.0000E-10  1.0000E-10  2.0000E-10  5.0000E-10  8.0000E-10
  11    0.000      1.0000E-10  1.0000E-10  1.0000E-10  1.0000E-10  1.0000E-10  1.0000E-10  2.0000E-10  5.0000E-10   0.000    
  12   1.0000E-10  1.0000E-10  1.0000E-10  1.0000E-10  1.0000E-10  1.0000E-10  1.0000E-10  1.0000E-10  2.0000E-10   0.000    
  13   1.0000E-10  1.0000E-10  2.0000E-10  2.0000E-10  2.0000E-10  2.0000E-10  2.0000E-10  1.0000E-10  1.0000E-10   0.000    
  14    0.000      2.0000E-10  5.0000E-10  5.0000E-10  5.0000E-10  5.0000E-10  5.0000E-10  2.0000E-10  1.0000E-10   0.000    
  15    0.000       0.000      8.0000E-10  8.0000E-10  8.0000E-10  8.0000E-10   0.000       0.000       0.000       0.000    

                  ET RATE =  5.000000E-10

 USING ET EXTINCTION DEPTH FROM PREVIOUS STRESS PERIOD. CURRENT PERIOD IS:      15

 USING EXTINCTION WATER CONTENT FROM PREVIOUS STRESS PERIOD. CURRENT PERIOD IS:      15

 USING AIR ENTRY PRESSURE FROM PREVIOUS STRESS PERIOD. CURRENT PERIOD IS:      15

 USING ROOT PRESSURE HEAD FROM PREVIOUS STRESS PERIOD. CURRENT PERIOD IS:      15

 USING ROOT ACTIVITY FROM PREVIOUS STRESS PERIOD. CURRENT PERIOD IS:      15

 PROCESSING AG STRESS PERIOD DATA

 READING AG STRESS PERIOD DATA

 READING IRRIGATION WELL

 NO IRRPOND OR REUSING IRRPOND DATA FROM LAST STRESS PERIOD

 END PROCESSING AG STRESS PERIOD DATA OPTIONS
 
 SOLVING FOR HEAD 
                                                   Max.-Head-Change                         Max.-Flux-Residual
  Residual-Control   Outer-Iter.   Inner-Iter.     Column Row Layer    Maximum-Head-Change  Column Row Layer    Maximum-Flux-Residual          L2-NORM 
          0                 1           2             4    7     1       0.1345192440E-01       4    7    1         0.7054238751E+00      0.1807172048E+01
          0                 2           2             4    7     1      -0.1307799590E-02       4    7    1        -0.7050426846E-01      0.1806519731E+00
          0                 3           1             4    7     1       0.8898918236E-04       4    7    1         0.4931569711E-02      0.1263932015E-01

    ------------------------------------------------
       NWT REQUIRED            3 OUTER ITERATIONS 
       AND A TOTAL OF          5 INNER ITERATIONS.
    ------------------------------------------------

 NO OUTPUT CONTROL FOR STRESS PERIOD   15   TIME STEP    1
 
 SOLVING FOR HEAD 
                                                   Max.-Head-Change                         Max.-Flux-Residual
  Residual-Control   Outer-Iter.   Inner-Iter.     Column Row Layer    Maximum-Head-Change  Column Row Layer    Maximum-Flux-Residual          L2-NORM 
          0                 1           2             4    7     1       0.1332891239E-01       4    7    1         0.6989499161E+00      0.1790481512E+01
          0                 2           2             4    7     1      -0.1297268340E-02       4    7    1        -0.6995203769E-01      0.1790132274E+00
          0                 3           1             4    7     1       0.8827261971E-04       4    7    1         0.4892943456E-02      0.1252509022E-01

    ------------------------------------------------
       NWT REQUIRED            3 OUTER ITERATIONS 
       AND A TOTAL OF          5 INNER ITERATIONS.
    ------------------------------------------------

 NO OUTPUT CONTROL FOR STRESS PERIOD   15   TIME STEP    2
 
 SOLVING FOR HEAD 
                                                   Max.-Head-Change                         Max.-Flux-Residual
  Residual-Control   Outer-Iter.   Inner-Iter.     Column Row Layer    Maximum-Head-Change  Column Row Layer    Maximum-Flux-Residual          L2-NORM 
          0                 1           2             4    7     1       0.1320346177E-01       4    7    1         0.6924736467E+00      0.1775567430E+01
          0                 2           2             4    7     1      -0.1283644453E-02       4    7    1        -0.6920995780E-01      0.1774843997E+00
          0                 3           1             4    7     1       0.8734557891E-04       4    7    1         0.4841036772E-02      0.1241806875E-01

    ------------------------------------------------
       NWT REQUIRED            3 OUTER ITERATIONS 
       AND A TOTAL OF          5 INNER ITERATIONS.
    ------------------------------------------------

 NO OUTPUT CONTROL FOR STRESS PERIOD   15   TIME STEP    3
 
 SOLVING FOR HEAD 
                                                   Max.-Head-Change                         Max.-Flux-Residual
  Residual-Control   Outer-Iter.   Inner-Iter.     Column Row Layer    Maximum-Head-Change  Column Row Layer    Maximum-Flux-Residual          L2-NORM 
          0                 1           2             4    7     1       0.1308133665E-01       4    7    1         0.6860379417E+00      0.1761826712E+01
          0                 2           2             4    7     1      -0.1271771352E-02       4    7    1        -0.6856673020E-01      0.1761238749E+00
          0                 3           1             4    7     1       0.8653767268E-04       4    7    1         0.4796044719E-02      0.1232293563E-01

    ------------------------------------------------
       NWT REQUIRED            3 OUTER ITERATIONS 
       AND A TOTAL OF          5 INNER ITERATIONS.
    ------------------------------------------------

 NO OUTPUT CONTROL FOR STRESS PERIOD   15   TIME STEP    4
 
 SOLVING FOR HEAD 
                                                   Max.-Head-Change                         Max.-Flux-Residual
  Residual-Control   Outer-Iter.   Inner-Iter.     Column Row Layer    Maximum-Head-Change  Column Row Layer    Maximum-Flux-Residual          L2-NORM 
          0                 1           2             4    7     1       0.1296088811E-01       4    7    1         0.6796911918E+00      0.1748251763E+01
          0                 2           2             4    7     1      -0.1260061251E-02       4    7    1        -0.6793239349E-01      0.1747670813E+00
          0                 3           1             4    7     1       0.8574085827E-04       4    7    1         0.4751674570E-02      0.1222805099E-01

    ------------------------------------------------
       NWT REQUIRED            3 OUTER ITERATIONS 
       AND A TOTAL OF          5 INNER ITERATIONS.
    ------------------------------------------------

 NO OUTPUT CONTROL FOR STRESS PERIOD   15   TIME STEP    5
 
 SOLVING FOR HEAD 
                                                   Max.-Head-Change                         Max.-Flux-Residual
  Residual-Control   Outer-Iter.   Inner-Iter.     Column Row Layer    Maximum-Head-Change  Column Row Layer    Maximum-Flux-Residual          L2-NORM 
          0                 1           2             4    7     1       0.1284207842E-01       4    7    1         0.6734313695E+00      0.1734860633E+01
          0                 2           2             4    7     1      -0.1248510483E-02       4    7    1        -0.6730674500E-01      0.1734285950E+00
          0                 3           1             4    7     1       0.8495488539E-04       4    7    1         0.4707912145E-02      0.1213446930E-01

    ------------------------------------------------
       NWT REQUIRED            3 OUTER ITERATIONS 
       AND A TOTAL OF          5 INNER ITERATIONS.
    ------------------------------------------------

 NO OUTPUT CONTROL FOR STRESS PERIOD   15   TIME STEP    6
 
 SOLVING FOR HEAD 
                                                   Max.-Head-Change                         Max.-Flux-Residual
  Residual-Control   Outer-Iter.   Inner-Iter.     Column Row Layer    Maximum-Head-Change  Column Row Layer    Maximum-Flux-Residual          L2-NORM 
          0                 1           2             4    7     1       0.1272487472E-01       4    7    1         0.6672565188E+00      0.1721636845E+01
          0                 2           2             4    7     1      -0.1237115850E-02       4    7    1        -0.6668958922E-01      0.1721068342E+00
          0                 3           1             4    7     1       0.8417953665E-04       4    7    1         0.4664743750E-02      0.1204196537E-01

    ------------------------------------------------
       NWT REQUIRED            3 OUTER ITERATIONS 
       AND A TOTAL OF          5 INNER ITERATIONS.
    ------------------------------------------------

 NO OUTPUT CONTROL FOR STRESS PERIOD   15   TIME STEP    7
 
 SOLVING FOR HEAD 
                                                   Max.-Head-Change                         Max.-Flux-Residual
  Residual-Control   Outer-Iter.   Inner-Iter.     Column Row Layer    Maximum-Head-Change  Column Row Layer    Maximum-Flux-Residual          L2-NORM 
          0                 1           2             4    7     1       0.1260937348E-01       4    7    1         0.6611723001E+00      0.1708582385E+01
          0                 2           2             4    7     1      -0.1225886734E-02       4    7    1        -0.6608149194E-01      0.1708019168E+00
          0                 3           1             4    7     1       0.8341545119E-04       4    7    1         0.4622208995E-02      0.1195064321E-01

    ------------------------------------------------
       NWT REQUIRED            3 OUTER ITERATIONS 
       AND A TOTAL OF          5 INNER ITERATIONS.
    ------------------------------------------------

 NO OUTPUT CONTROL FOR STRESS PERIOD   15   TIME STEP    8
 
 SOLVING FOR HEAD 
                                                   Max.-Head-Change                         Max.-Flux-Residual
  Residual-Control   Outer-Iter.   Inner-Iter.     Column Row Layer    Maximum-Head-Change  Column Row Layer    Maximum-Flux-Residual          L2-NORM 
          0                 1           2             4    7     1       0.1249540051E-01       4    7    1         0.6551689861E+00      0.1695685143E+01
          0                 2           2             4    7     1      -0.1214806199E-02       4    7    1        -0.6548148090E-01      0.1695127281E+00
          0                 3           1             4    7     1       0.8266147547E-04       4    7    1         0.4580239845E-02      0.1186047034E-01

    ------------------------------------------------
       NWT REQUIRED            3 OUTER ITERATIONS 
       AND A TOTAL OF          5 INNER ITERATIONS.
    ------------------------------------------------

 NO OUTPUT CONTROL FOR STRESS PERIOD   15   TIME STEP    9
 
 SOLVING FOR HEAD 
                                                   Max.-Head-Change                         Max.-Flux-Residual
  Residual-Control   Outer-Iter.   Inner-Iter.     Column Row Layer    Maximum-Head-Change  Column Row Layer    Maximum-Flux-Residual          L2-NORM 
          0                 1           2             4    7     1       0.1238292419E-01       4    7    1         0.6492449107E+00      0.1682944084E+01
          0                 2           2             4    7     1      -0.1203871170E-02       4    7    1        -0.6488938955E-01      0.1682391125E+00
          0                 3           1             4    7     1       0.8191740038E-04       4    7    1         0.4538824639E-02      0.1177136122E-01

    ------------------------------------------------
       NWT REQUIRED            3 OUTER ITERATIONS 
       AND A TOTAL OF          5 INNER ITERATIONS.
    ------------------------------------------------

 NO OUTPUT CONTROL FOR STRESS PERIOD   15   TIME STEP   10
 
 SOLVING FOR HEAD 
                                                   Max.-Head-Change                         Max.-Flux-Residual
  Residual-Control   Outer-Iter.   Inner-Iter.     Column Row Layer    Maximum-Head-Change  Column Row Layer    Maximum-Flux-Residual          L2-NORM 
          0                 1           2             4    7     1       0.1227204977E-01       4    7    1         0.6434057983E+00      0.1670359254E+01
          0                 2           2             4    7     1      -0.1193091879E-02       4    7    1        -0.6430579006E-01      0.1669811088E+00
          0                 3           1             4    7     1       0.8118392270E-04       4    7    1         0.4498003424E-02      0.1168333562E-01

    ------------------------------------------------
       NWT REQUIRED            3 OUTER ITERATIONS 
       AND A TOTAL OF          5 INNER ITERATIONS.
    ------------------------------------------------

 NO OUTPUT CONTROL FOR STRESS PERIOD   15   TIME STEP   11
 
 SOLVING FOR HEAD 
                                                   Max.-Head-Change                         Max.-Flux-Residual
  Residual-Control   Outer-Iter.   Inner-Iter.     Column Row Layer    Maximum-Head-Change  Column Row Layer    Maximum-Flux-Residual          L2-NORM 
          0                 1           2             4    7     1       0.1216246915E-01       4    7    1         0.6376350112E+00      0.1657923465E+01
          0                 2           2             4    7     1      -0.1182438374E-02       4    7    1        -0.6372901950E-01      0.1657379911E+00
          0                 3           1             4    7     1       0.8045900453E-04       4    7    1         0.4457659890E-02      0.1159637579E-01

    ------------------------------------------------
       NWT REQUIRED            3 OUTER ITERATIONS 
       AND A TOTAL OF          5 INNER ITERATIONS.
    ------------------------------------------------

 NO OUTPUT CONTROL FOR STRESS PERIOD   15   TIME STEP   12
 
 SOLVING FOR HEAD 
                                                   Max.-Head-Change                         Max.-Flux-Residual
  Residual-Control   Outer-Iter.   Inner-Iter.     Column Row Layer    Maximum-Head-Change  Column Row Layer    Maximum-Flux-Residual          L2-NORM 
          0                 1           2             4    7     1       0.1205456293E-01       4    7    1         0.6319534015E+00      0.1645638443E+01
          0                 2           2             4    7     1      -0.1171947657E-02       4    7    1        -0.6316116207E-01      0.1645099178E+00
          0                 3           1             4    7     1       0.7974516351E-04       4    7    1         0.4417939822E-02      0.1151042719E-01

    ------------------------------------------------
       NWT REQUIRED            3 OUTER ITERATIONS 
       AND A TOTAL OF          5 INNER ITERATIONS.
    ------------------------------------------------

 NO OUTPUT CONTROL FOR STRESS PERIOD   15   TIME STEP   13
 
 SOLVING FOR HEAD 
                                                   Max.-Head-Change                         Max.-Flux-Residual
  Residual-Control   Outer-Iter.   Inner-Iter.     Column Row Layer    Maximum-Head-Change  Column Row Layer    Maximum-Flux-Residual          L2-NORM 
          0                 1           2             4    7     1       0.1194788877E-01       4    7    1         0.6263365101E+00      0.1633494264E+01
          0                 2           2             4    7     1      -0.1161576722E-02       4    7    1        -0.6259977304E-01      0.1632959671E+00
          0                 3           1             4    7     1       0.7903947269E-04       4    7    1         0.4378672183E-02      0.1142552062E-01

    ------------------------------------------------
       NWT REQUIRED            3 OUTER ITERATIONS 
       AND A TOTAL OF          5 INNER ITERATIONS.
    ------------------------------------------------

 NO OUTPUT CONTROL FOR STRESS PERIOD   15   TIME STEP   14
 
 SOLVING FOR HEAD 
                                                   Max.-Head-Change                         Max.-Flux-Residual
  Residual-Control   Outer-Iter.   Inner-Iter.     Column Row Layer    Maximum-Head-Change  Column Row Layer    Maximum-Flux-Residual          L2-NORM 
          0                 1           2             4    7     1       0.1184269690E-01       4    7    1         0.6207982298E+00      0.1621495740E+01
          0                 2           2             4    7     1      -0.1151349898E-02       4    7    1        -0.6204624099E-01      0.1620965350E+00
          0                 3           1             4    7     1       0.7834358735E-04       4    7    1         0.4339954095E-02      0.1134159027E-01

    ------------------------------------------------
       NWT REQUIRED            3 OUTER ITERATIONS 
       AND A TOTAL OF          5 INNER ITERATIONS.
    ------------------------------------------------

 NO OUTPUT CONTROL FOR STRESS PERIOD   15   TIME STEP   15
 
 SOLVING FOR HEAD 
                                                   Max.-Head-Change                         Max.-Flux-Residual
  Residual-Control   Outer-Iter.   Inner-Iter.     Column Row Layer    Maximum-Head-Change  Column Row Layer    Maximum-Flux-Residual          L2-NORM 
          0                 1           2             4    7     1       0.1173894992E-01       4    7    1         0.6153368045E+00      0.1609633431E+01
          0                 2           2             4    7     1      -0.1141263547E-02       4    7    1        -0.6150039043E-01      0.1609107380E+00
          0                 3           1             4    7     1       0.7765726149E-04       4    7    1         0.4301773351E-02      0.1125863093E-01

    ------------------------------------------------
       NWT REQUIRED            3 OUTER ITERATIONS 
       AND A TOTAL OF          5 INNER ITERATIONS.
    ------------------------------------------------

 NO OUTPUT CONTROL FOR STRESS PERIOD   15   TIME STEP   16
 
 SOLVING FOR HEAD 
                                                   Max.-Head-Change                         Max.-Flux-Residual
  Residual-Control   Outer-Iter.   Inner-Iter.     Column Row Layer    Maximum-Head-Change  Column Row Layer    Maximum-Flux-Residual          L2-NORM 
          0                 1           2             4    7     1       0.1163648378E-01       4    7    1         0.6099429273E+00      0.1597907688E+01
          0                 2           2             4    7     1      -0.1131301722E-02       4    7    1        -0.6096129112E-01      0.1597385653E+00
          0                 3           1             4    7     1       0.7697940841E-04       4    7    1         0.4264064828E-02      0.1117662122E-01

    ------------------------------------------------
       NWT REQUIRED            3 OUTER ITERATIONS 
       AND A TOTAL OF          5 INNER ITERATIONS.
    ------------------------------------------------

 NO OUTPUT CONTROL FOR STRESS PERIOD   15   TIME STEP   17
 
 SOLVING FOR HEAD 
                                                   Max.-Head-Change                         Max.-Flux-Residual
  Residual-Control   Outer-Iter.   Inner-Iter.     Column Row Layer    Maximum-Head-Change  Column Row Layer    Maximum-Flux-Residual          L2-NORM 
          0                 1           2             4    7     1       0.1153527585E-01       4    7    1         0.6046154595E+00      0.1586317167E+01
          0                 2           2             4    7     1      -0.1121462221E-02       4    7    1        -0.6042882924E-01      0.1585799077E+00
          0                 3           1             4    7     1       0.7630987878E-04       4    7    1         0.4226820559E-02      0.1109554248E-01

    ------------------------------------------------
       NWT REQUIRED            3 OUTER ITERATIONS 
       AND A TOTAL OF          5 INNER ITERATIONS.
    ------------------------------------------------

 NO OUTPUT CONTROL FOR STRESS PERIOD   15   TIME STEP   18
 
 SOLVING FOR HEAD 
                                                   Max.-Head-Change                         Max.-Flux-Residual
  Residual-Control   Outer-Iter.   Inner-Iter.     Column Row Layer    Maximum-Head-Change  Column Row Layer    Maximum-Flux-Residual          L2-NORM 
          0                 1           2             4    7     1       0.1143543671E-01       4    7    1         0.5993605943E+00      0.1574856411E+01
          0                 2           2             4    7     1      -0.1111755797E-02       4    7    1        -0.5990362385E-01      0.1574342675E+00
          0                 3           1             4    7     1       0.7564940521E-04       4    7    1         0.4190083897E-02      0.1101541298E-01

    ------------------------------------------------
       NWT REQUIRED            3 OUTER ITERATIONS 
       AND A TOTAL OF          5 INNER ITERATIONS.
    ------------------------------------------------

 NO OUTPUT CONTROL FOR STRESS PERIOD   15   TIME STEP   19
 
 SOLVING FOR HEAD 
                                                   Max.-Head-Change                         Max.-Flux-Residual
  Residual-Control   Outer-Iter.   Inner-Iter.     Column Row Layer    Maximum-Head-Change  Column Row Layer    Maximum-Flux-Residual          L2-NORM 
          0                 1           2             4    7     1       0.1133679979E-01       4    7    1         0.5941693318E+00      0.1563525342E+01
          0                 2           2             4    7     1      -0.1102166253E-02       4    7    1        -0.5938477537E-01      0.1563015727E+00
          0                 3           1             4    7     1       0.7499688410E-04       4    7    1         0.4153791845E-02      0.1093616560E-01

    ------------------------------------------------
       NWT REQUIRED            3 OUTER ITERATIONS 
       AND A TOTAL OF          5 INNER ITERATIONS.
    ------------------------------------------------

 NO OUTPUT CONTROL FOR STRESS PERIOD   15   TIME STEP   20
 
 SOLVING FOR HEAD 
                                                   Max.-Head-Change                         Max.-Flux-Residual
  Residual-Control   Outer-Iter.   Inner-Iter.     Column Row Layer    Maximum-Head-Change  Column Row Layer    Maximum-Flux-Residual          L2-NORM 
          0                 1           2             4    7     1       0.1123948249E-01       4    7    1         0.5890477693E+00      0.1552323829E+01
          0                 2           2             4    7     1      -0.1092705004E-02       4    7    1        -0.5887289322E-01      0.1551817978E+00
          0                 3           1             4    7     1       0.7435309293E-04       4    7    1         0.4117987097E-02      0.1085781231E-01

    ------------------------------------------------
       NWT REQUIRED            3 OUTER ITERATIONS 
       AND A TOTAL OF          5 INNER ITERATIONS.
    ------------------------------------------------

 NO OUTPUT CONTROL FOR STRESS PERIOD   15   TIME STEP   21
 
 SOLVING FOR HEAD 
                                                   Max.-Head-Change                         Max.-Flux-Residual
  Residual-Control   Outer-Iter.   Inner-Iter.     Column Row Layer    Maximum-Head-Change  Column Row Layer    Maximum-Flux-Residual          L2-NORM 
          0                 1           2             4    7     1       0.1114345096E-01       4    7    1         0.5839946266E+00      0.1541243193E+01
          0                 2           2             4    7     1      -0.1083368761E-02       4    7    1        -0.5836784947E-01      0.1540741311E+00
          0                 3           1             4    7     1       0.7371780790E-04       4    7    1         0.4082660663E-02      0.1078031448E-01

    ------------------------------------------------
       NWT REQUIRED            3 OUTER ITERATIONS 
       AND A TOTAL OF          5 INNER ITERATIONS.
    ------------------------------------------------

 NO OUTPUT CONTROL FOR STRESS PERIOD   15   TIME STEP   22
 
 SOLVING FOR HEAD 
                                                   Max.-Head-Change                         Max.-Flux-Residual
  Residual-Control   Outer-Iter.   Inner-Iter.     Column Row Layer    Maximum-Head-Change  Column Row Layer    Maximum-Flux-Residual          L2-NORM 
          0                 1           2             4    7     1       0.1104854849E-01       4    7    1         0.5790007821E+00      0.1530288227E+01
          0                 2           2             4    7     1      -0.1074142285E-02       4    7    1        -0.5786873237E-01      0.1529790271E+00
          0                 3           1             4    7     1       0.7308999158E-04       4    7    1         0.4047748788E-02      0.1070369109E-01

    ------------------------------------------------
       NWT REQUIRED            3 OUTER ITERATIONS 
       AND A TOTAL OF          5 INNER ITERATIONS.
    ------------------------------------------------

 NO OUTPUT CONTROL FOR STRESS PERIOD   15   TIME STEP   23
 
 SOLVING FOR HEAD 
                                                   Max.-Head-Change                         Max.-Flux-Residual
  Residual-Control   Outer-Iter.   Inner-Iter.     Column Row Layer    Maximum-Head-Change  Column Row Layer    Maximum-Flux-Residual          L2-NORM 
          0                 1           2             4    7     1       0.1095475201E-01       4    7    1         0.5740654772E+00      0.1519453828E+01
          0                 2           2             4    7     1      -0.1065023334E-02       4    7    1        -0.5737546618E-01      0.1518959240E+00
          0                 3           1             4    7     1       0.7246949248E-04       4    7    1         0.4013246175E-02      0.1062788227E-01

    ------------------------------------------------
       NWT REQUIRED            3 OUTER ITERATIONS 
       AND A TOTAL OF          5 INNER ITERATIONS.
    ------------------------------------------------

 NO OUTPUT CONTROL FOR STRESS PERIOD   15   TIME STEP   24
 
 SOLVING FOR HEAD 
                                                   Max.-Head-Change                         Max.-Flux-Residual
  Residual-Control   Outer-Iter.   Inner-Iter.     Column Row Layer    Maximum-Head-Change  Column Row Layer    Maximum-Flux-Residual          L2-NORM 
          0                 1           2             4    7     1       0.1086218020E-01       4    7    1         0.5691948829E+00      0.1508742961E+01
          0                 2           2             4    7     1      -0.1056023448E-02       4    7    1        -0.5688866764E-01      0.1508252644E+00
          0                 3           1             4    7     1       0.7185709483E-04       4    7    1         0.3979195953E-02      0.1055300324E-01

    ------------------------------------------------
       NWT REQUIRED            3 OUTER ITERATIONS 
       AND A TOTAL OF          5 INNER ITERATIONS.
    ------------------------------------------------

 NO OUTPUT CONTROL FOR STRESS PERIOD   15   TIME STEP   25
 
 SOLVING FOR HEAD 
                                                   Max.-Head-Change                         Max.-Flux-Residual
  Residual-Control   Outer-Iter.   Inner-Iter.     Column Row Layer    Maximum-Head-Change  Column Row Layer    Maximum-Flux-Residual          L2-NORM 
          0                 1           2             4    7     1       0.1077080649E-01       4    7    1         0.5643877863E+00      0.1498147948E+01
          0                 2           2             4    7     1      -0.1047140043E-02       4    7    1        -0.5640821552E-01      0.1497661575E+00
          0                 3           1             4    7     1       0.7125262325E-04       4    7    1         0.3945589657E-02      0.1047890901E-01

    ------------------------------------------------
       NWT REQUIRED            3 OUTER ITERATIONS 
       AND A TOTAL OF          5 INNER ITERATIONS.
    ------------------------------------------------

 NO OUTPUT CONTROL FOR STRESS PERIOD   15   TIME STEP   26
 
 SOLVING FOR HEAD 
                                                   Max.-Head-Change                         Max.-Flux-Residual
  Residual-Control   Outer-Iter.   Inner-Iter.     Column Row Layer    Maximum-Head-Change  Column Row Layer    Maximum-Flux-Residual          L2-NORM 
          0                 1           2             4    7     1       0.1068060661E-01       4    7    1         0.5596428093E+00      0.1487668403E+01
          0                 2           2             4    7     1      -0.1038370758E-02       4    7    1        -0.5593397209E-01      0.1487184464E+00
          0                 3           1             4    7     1       0.7065591668E-04       4    7    1         0.3912417622E-02      0.1040558785E-01

    ------------------------------------------------
       NWT REQUIRED            3 OUTER ITERATIONS 
       AND A TOTAL OF          5 INNER ITERATIONS.
    ------------------------------------------------

 NO OUTPUT CONTROL FOR STRESS PERIOD   15   TIME STEP   27
 
 SOLVING FOR HEAD 
                                                   Max.-Head-Change                         Max.-Flux-Residual
  Residual-Control   Outer-Iter.   Inner-Iter.     Column Row Layer    Maximum-Head-Change  Column Row Layer    Maximum-Flux-Residual          L2-NORM 
          0                 1           2             4    7     1       0.1059142272E-01       4    7    1         0.5549513248E+00      0.1477302090E+01
          0                 2           2             4    7     1      -0.1029700250E-02       4    7    1        -0.5546507508E-01      0.1476823259E+00
          0                 3           1             4    7     1       0.7006593187E-04       4    7    1         0.3879619579E-02      0.1033310541E-01

    ------------------------------------------------
       NWT REQUIRED            3 OUTER ITERATIONS 
       AND A TOTAL OF          5 INNER ITERATIONS.
    ------------------------------------------------

 NO OUTPUT CONTROL FOR STRESS PERIOD   15   TIME STEP   28
 
 SOLVING FOR HEAD 
                                                   Max.-Head-Change                         Max.-Flux-Residual
  Residual-Control   Outer-Iter.   Inner-Iter.     Column Row Layer    Maximum-Head-Change  Column Row Layer    Maximum-Flux-Residual          L2-NORM 
          0                 1           2             4    7     1       0.1050349729E-01       4    7    1         0.5503198865E+00      0.1588485091E+01
          0                 2           2             4    7     1      -0.1021152081E-02       4    7    1        -0.5500217906E-01      0.1581620650E+00
          0                 3           1             4    7     1       0.6948426991E-04       4    7    1         0.3847241225E-02      0.1100821556E-01

    ------------------------------------------------
       NWT REQUIRED            3 OUTER ITERATIONS 
       AND A TOTAL OF          5 INNER ITERATIONS.
    ------------------------------------------------

 NO OUTPUT CONTROL FOR STRESS PERIOD   15   TIME STEP   29
 
 SOLVING FOR HEAD 
                                                   Max.-Head-Change                         Max.-Flux-Residual
  Residual-Control   Outer-Iter.   Inner-Iter.     Column Row Layer    Maximum-Head-Change  Column Row Layer    Maximum-Flux-Residual          L2-NORM 
          0                 1           2             4   13     1       0.2959009580E-01       4   13    1         0.1713994165E+01      0.3372648831E+01
          0                 2           2             4   13     1      -0.2845915703E-02       4   13    1        -0.1695014864E+00      0.3285046445E+00
          0                 3           2             4   13     1       0.1907774512E-03       4   13    1         0.1168310776E-01      0.2218340388E-01
          0                 4           1             4   13     1      -0.7399779311E-05       4   13    1        -0.4659852921E-03      0.8564035448E-03

    ------------------------------------------------
       NWT REQUIRED            4 OUTER ITERATIONS 
       AND A TOTAL OF          7 INNER ITERATIONS.
    ------------------------------------------------

 NO OUTPUT CONTROL FOR STRESS PERIOD   15   TIME STEP   30



 STREAM LISTING     PERIOD     15   STEP       30

 LAYER ROW COL. STREAM  RCH.  FLOW INTO     FLOW TO   FLOW OUT OF   OVRLND.     DIRECT     STREAM       STREAM     STREAM     STREAM   STREAMBED  STREAMBED
                SEG.NO.  NO.  STRM. RCH.    AQUIFER    STRM. RCH.    RUNOFF     PRECIP       ET          HEAD       DEPTH      WIDTH   CONDCTNC.   GRADIENT

   1    1    1     1     1    9.8001E+01  4.7086E-01   9.7531E+01  0.000E+00  0.000E+00  0.000E+00  1.09484E+03  1.792E+00  2.184E+01  9.826E-02  1.597E+00
   1    2    2     1     2    9.7531E+01  7.3063E-01   9.6800E+01  0.000E+00  0.000E+00  0.000E+00  1.08985E+03  1.790E+00  2.179E+01  1.525E-01  1.597E+00
   1    3    3     1     3    9.6800E+01  6.2448E-01   9.6176E+01  0.000E+00  0.000E+00  0.000E+00  1.08421E+03  1.787E+00  2.174E+01  1.304E-01  1.596E+00
   1    3    4     1     4    9.6176E+01  5.7618E-01   9.5599E+01  0.000E+00  0.000E+00  0.000E+00  1.07919E+03  1.785E+00  2.170E+01  1.204E-01  1.595E+00
   1    4    5     2     1    9.3599E+01  4.4168E-01   9.3158E+01  0.000E+00  0.000E+00  0.000E+00  1.07460E+03  2.663E+00  1.200E+01  7.800E-02  1.888E+00
   1    5    6     2     2    9.3158E+01  3.3935E-01   9.2818E+01  0.000E+00  0.000E+00  0.000E+00  1.06917E+03  2.656E+00  1.200E+01  6.000E-02  1.885E+00
   1    6    6     2     3    9.2818E+01  3.3900E-01   9.2479E+01  0.000E+00  0.000E+00  0.000E+00  1.06444E+03  2.650E+00  1.200E+01  6.000E-02  1.883E+00
   1    7    6     2     4    9.2479E+01  3.3865E-01   9.2141E+01  0.000E+00  0.000E+00  0.000E+00  1.05972E+03  2.644E+00  1.200E+01  6.000E-02  1.881E+00
   1    8    6     2     5    9.2141E+01  3.3830E-01   9.1802E+01  0.000E+00  0.000E+00  0.000E+00  1.05500E+03  2.638E+00  1.200E+01  6.000E-02  1.879E+00
   1    3    5     3     1    2.0000E+00  2.8252E-01   1.7175E+00  0.000E+00  0.000E+00  0.000E+00  1.07555E+03  1.909E+00  9.636E+00  7.227E-02  1.955E+00
   1    3    6     3     2    1.7175E+00  2.4905E-01   1.4684E+00  0.000E+00  0.000E+00  0.000E+00  1.07264E+03  1.727E+00  8.909E+00  6.682E-02  1.864E+00
   1    3    7     3     3    1.4684E+00  1.9718E-01   1.2712E+00  0.000E+00  0.000E+00  0.000E+00  1.06987E+03  1.555E+00  8.218E+00  5.547E-02  1.777E+00
   1    4    8     3     4    1.2712E+00  2.2567E-01   1.0456E+00  0.000E+00  0.000E+00  0.000E+00  1.06682E+03  1.364E+00  7.455E+00  6.709E-02  1.682E+00
   1    5    8     3     5    1.0456E+00  1.5790E-01   8.8768E-01  0.000E+00  0.000E+00  0.000E+00  1.06362E+03  1.164E+00  6.655E+00  4.991E-02  1.582E+00
   1    6    8     3     6    8.8768E-01  5.5980E-02   8.3170E-01  0.000E+00  0.000E+00  0.000E+00  1.06158E+03  1.036E+00  6.145E+00  1.844E-02  1.518E+00
   1    5   10     4     1    1.0000E+01  9.0919E-02   9.9091E+00  0.000E+00  0.000E+00  0.000E+00  1.07836E+03  6.368E-01  1.000E+01  2.500E-02  1.212E+00
   1    5    9     4     2    9.9091E+00  1.8158E-01   9.7275E+00  0.000E+00  0.000E+00  0.000E+00  1.07154E+03  6.315E-01  1.000E+01  5.000E-02  1.211E+00
   1    6    8     4     3    9.7275E+00  1.2689E-01   9.6006E+00  0.000E+00  0.000E+00  0.000E+00  1.06381E+03  6.256E-01  1.000E+01  3.500E-02  1.209E+00
   1    6    8     5     1    1.0432E+01  2.2686E-01   1.0205E+01  0.000E+00  0.000E+00  0.000E+00  1.05868E+03  6.790E-01  1.542E+01  6.166E-02  1.226E+00
   1    7    7     5     2    1.0205E+01  2.7894E-01   9.9265E+00  0.000E+00  0.000E+00  0.000E+00  1.05417E+03  6.732E-01  1.519E+01  7.594E-02  1.224E+00
   1    8    7     5     3    9.9265E+00  1.9221E-01   9.7343E+00  0.000E+00  0.000E+00  0.000E+00  1.04992E+03  6.676E-01  1.497E+01  5.241E-02  1.223E+00
   1    8    6     5     4    9.7343E+00  1.3577E-01   9.5985E+00  0.000E+00  0.000E+00  0.000E+00  1.04691E+03  6.637E-01  1.482E+01  3.706E-02  1.221E+00
   1    9    6     6     1    1.0140E+02  3.4955E-01   1.0105E+02  0.000E+00  0.000E+00  0.000E+00  1.04555E+03  2.826E+00  1.200E+01  6.000E-02  1.942E+00
   1   10    7     6     2    1.0105E+02  3.4920E-01   1.0070E+02  0.000E+00  0.000E+00  0.000E+00  1.04100E+03  2.820E+00  1.200E+01  6.000E-02  1.940E+00
   1   11    7     6     3    1.0070E+02  3.4885E-01   1.0035E+02  0.000E+00  0.000E+00  0.000E+00  1.03645E+03  2.814E+00  1.200E+01  6.000E-02  1.938E+00
   1   12    7     6     4    1.0035E+02  3.4850E-01   1.0000E+02  0.000E+00  0.000E+00  0.000E+00  1.03190E+03  2.808E+00  1.200E+01  6.000E-02  1.936E+00
   1   13    7     6     5    1.0000E+02  3.8481E-02   9.9966E+01  0.000E+00  0.000E+00  0.000E+00  1.02871E+03  2.805E+00  1.200E+01  2.400E-02  5.345E-01
   1   14    9     7     1    1.5000E+02  1.3296E+00   1.4867E+02  0.000E+00  0.000E+00  0.000E+00  1.03987E+03  2.288E+00  5.529E+01  5.593E-01  7.924E-01
   1   13    8     7     2    1.4867E+02  1.8132E+00   1.4686E+02  0.000E+00  0.000E+00  0.000E+00  1.03478E+03  2.279E+00  5.526E+01  6.148E-01  9.831E-01
   1   13    7     7     3    1.4686E+02  1.4405E+00   1.4542E+02  0.000E+00  0.000E+00  0.000E+00  1.02969E+03  2.271E+00  5.522E+01  5.585E-01  8.598E-01
   1   13    6     8     1    2.4538E+02  1.2467E+00   2.4414E+02  0.000E+00  0.000E+00  0.000E+00  1.02526E+03  3.385E+00  4.908E+01  5.001E-01  8.310E-01
   1   13    5     8     2    2.4414E+02  4.0155E-01   2.4373E+02  0.000E+00  0.000E+00  0.000E+00  1.01901E+03  3.380E+00  4.901E+01  4.995E-01  2.680E-01
   1   13    4     8     3    2.4373E+02 -8.5283E-01   2.4459E+02  0.000E+00  0.000E+00  0.000E+00  1.01276E+03  3.381E+00  4.903E+01  4.996E+00 -5.690E-02
   1   13    3     8     4    2.4459E+02 -2.2565E+00   2.4684E+02  0.000E+00  0.000E+00  0.000E+00  1.00651E+03  3.390E+00  4.915E+01  5.008E+00 -1.502E-01
   1   13    2     8     5    2.4684E+02 -1.0733E+00   2.4792E+02  0.000E+00  0.000E+00  0.000E+00  1.00027E+03  3.398E+00  4.927E+01  5.021E+00 -7.125E-02
   1   13    1     8     6    2.4792E+02 -1.1112E+00   2.4903E+02  0.000E+00  0.000E+00  0.000E+00  9.95279E+02  3.404E+00  4.935E+01  3.018E+00 -1.227E-01





UNSATURATED ZONE PACKAGE VOLUMETRIC BUDGET FOR  TIME STEP    30 STRESS PERIOD   15
  ------------------------------------------------------------------------------



     CUMULATIVE VOLUMES      L**3       RATES FOR THIS TIME STEP      L**3/T
     ------------------                 ------------------------

           IN:                                      IN:
           ---                                      ---
        INFILTRATION =   466326233.7638          INFILTRATION =           0.8475

          OUT:                                     OUT:
          ----                                     ----
              UZF ET =   427294502.3193                UZF ET =           0.7500
        UZF RECHARGE =    37934102.4671          UZF RECHARGE =           0.0001

            IN - OUT =     1097628.9775              IN - OUT =       9.7366E-02

          STORAGE:                                 STORAGE:
          --------                                 --------
      STORAGE CHANGE =     1097629.5181        STORAGE CHANGE =       9.7366E-02

 PERCENT DISCREPANCY IS DIFFERENCE BETWEEN IN-OUT MINUS CHANGE IN STORAGE
 DIVIDED BY THE AVERAGE OF IN AND OUT TIMES 100

 PERCENT DISCREPANCY =           0.00     PERCENT DISCREPANCY =           0.00






1
  VOLUMETRIC BUDGET FOR AGRICULTURAL FIELDS AT  END OF TIME STEP   30, STRESS PERIOD  15
  ------------------------------------------------------------------------------

     CUMULATIVE VOLUMES      L**3       RATES FOR THIS TIME STEP      L**3/T
     ------------------                 ------------------------

           IN:                                      IN:
           ---                                      ---
               AG WELLS  =   435047680.0000                 AG WELLS  =           0.0000
      DIVERSION SEGMENTS =           0.0000        DIVERSION SEGMENTS =           0.0000
       IRRIGATION PONDS  =           0.0000         IRRIGATION PONDS  =           0.0000
           GW IRRIGATION =           0.0000             GW IRRIGATION =           0.0000
           SW IRRIGATION =           0.0000             SW IRRIGATION =           0.0000
        SYSTEM LOSSES GW =           0.0000          SYSTEM LOSSES GW =           0.0000
        SYSTEM LOSSES SW =           0.0000          SYSTEM LOSSES SW =           0.0000

                TOTAL IN =   435047680.0000                  TOTAL IN =           0.0000

          OUT:                                     OUT:
          ----                                     ----
               AG WELLS  =           0.0000                 AG WELLS  =           0.0000
      DIVERSION SEGMENTS =           0.0000        DIVERSION SEGMENTS =           0.0000
       IRRIGATION PONDS  =           0.0000         IRRIGATION PONDS  =           0.0000
           GW IRRIGATION =   435047680.0000             GW IRRIGATION =           0.0000
           SW IRRIGATION =           0.0000             SW IRRIGATION =           0.0000
        SYSTEM LOSSES GW =           0.0000          SYSTEM LOSSES GW =           0.0000
        SYSTEM LOSSES SW =           0.0000          SYSTEM LOSSES SW =           0.0000

               TOTAL OUT =   435047680.0000                 TOTAL OUT =           0.0000

                IN - OUT =           0.0000                  IN - OUT =           0.0000

     PERCENT DISCREPANCY =           0.00         PERCENT DISCREPANCY =           0.00



1
  VOLUMETRIC BUDGET FOR ENTIRE MODEL AT END OF TIME STEP   30, STRESS PERIOD  15
  ------------------------------------------------------------------------------

     CUMULATIVE VOLUMES      L**3       RATES FOR THIS TIME STEP      L**3/T
     ------------------                 ------------------------

           IN:                                      IN:
           ---                                      ---
             STORAGE     =   589684544.0000               STORAGE     =           3.7168
       CONSTANT HEAD     =           0.0000         CONSTANT HEAD     =           0.0000
     HEAD DEP BOUNDS     =    10533747.0000       HEAD DEP BOUNDS     =           0.2853
      STREAM LEAKAGE     =   454588064.0000        STREAM LEAKAGE     =          14.2667
        UZF RECHARGE     =    37934104.0000          UZF RECHARGE     =       1.3375E-04
               GW ET     =           0.0000                 GW ET     =           0.0000
     SURFACE LEAKAGE     =           0.0000       SURFACE LEAKAGE     =           0.0000
           AG WELLS      =           0.0000             AG WELLS      =           0.0000

                TOTAL IN =  1092740480.0000                  TOTAL IN =          18.2690

          OUT:                                     OUT:
          ----                                     ----
             STORAGE     =   248091472.0000               STORAGE     =          12.6845
       CONSTANT HEAD     =           0.0000         CONSTANT HEAD     =           0.0000
     HEAD DEP BOUNDS     =    10850499.0000       HEAD DEP BOUNDS     =           0.2906
      STREAM LEAKAGE     =   384996192.0000        STREAM LEAKAGE     =           5.2938
        UZF RECHARGE     =           0.0000          UZF RECHARGE     =           0.0000
               GW ET     =    13758168.0000                 GW ET     =           0.0000
     SURFACE LEAKAGE     =           0.0000       SURFACE LEAKAGE     =           0.0000
           AG WELLS      =   435047680.0000             AG WELLS      =           0.0000

               TOTAL OUT =  1092743936.0000                 TOTAL OUT =          18.2689

                IN - OUT =       -3456.0000                  IN - OUT =       3.4332E-05

     PERCENT DISCREPANCY =          -0.00         PERCENT DISCREPANCY =           0.00






         TIME SUMMARY AT END OF TIME STEP   30 IN STRESS PERIOD   15
                    SECONDS     MINUTES      HOURS       DAYS        YEARS
                    -----------------------------------------------------------
   TIME STEP LENGTH  87667.      1461.1      24.352      1.0147     2.77799E-03
 STRESS PERIOD TIME 2.63000E+06  43833.      730.56      30.440     8.33397E-02
         TOTAL TIME 3.69063E+07 6.15106E+05  10252.      427.16      1.1695    
1
1
                            STRESS PERIOD NO.   16, LENGTH =   2630000.    
                            -----------------------------------------------

                              NUMBER OF TIME STEPS =    30

                               MULTIPLIER FOR DELT =     1.000

                            INITIAL TIME STEP SIZE =   87666.66    

 REUSING NON-PARAMETER GHB CELLS FROM LAST STRESS PERIOD

      2 GHB CELLS

 REUSING STREAM SEGMENT DATA FROM LAST STRESS PERIOD



            AREAL INFILTRATION RATE
 READING ON UNIT   19 WITH FORMAT: (FREE)              

            1           2           3           4           5           6           7           8           9          10
 ........................................................................................................................
   1   1.0000E-10  2.0000E-10   0.000       0.000       0.000       0.000       0.000       0.000       0.000       0.000    
   2   2.0000E-10  1.0000E-10  2.0000E-10   0.000       0.000      8.0000E-10  8.0000E-10  5.0000E-10   0.000       0.000    
   3    0.000      5.0000E-10  1.0000E-10  1.0000E-10  8.0000E-10  8.0000E-10  5.0000E-10  5.0000E-10   0.000       0.000    
   4   8.0000E-10  5.0000E-10  1.0000E-10  1.0000E-10  1.0000E-10  1.0000E-10  1.0000E-10  1.0000E-10  2.0000E-10   0.000    
   5   8.0000E-10  5.0000E-10  1.0000E-10  1.0000E-10  1.0000E-10  1.0000E-10  1.0000E-10  1.0000E-10  1.0000E-10  1.0000E-10
   6   8.0000E-10  5.0000E-10  5.0000E-10  2.0000E-10  2.0000E-10  1.0000E-10  1.0000E-10  1.0000E-10  1.0000E-10  5.0000E-10
   7   8.0000E-10  5.0000E-10  5.0000E-10  2.0000E-10  2.0000E-10  1.0000E-10  1.0000E-10  2.0000E-10  2.0000E-10   0.000    
   8    0.000      5.0000E-10  5.0000E-10  2.0000E-10  2.0000E-10  1.0000E-10  1.0000E-10  2.0000E-10  5.0000E-10   0.000    
   9    0.000      5.0000E-10  5.0000E-10  2.0000E-10  2.0000E-10  1.0000E-10  1.0000E-10  2.0000E-10  5.0000E-10   0.000    
  10    0.000      5.0000E-10  5.0000E-10  2.0000E-10  2.0000E-10  1.0000E-10  1.0000E-10  2.0000E-10  5.0000E-10  8.0000E-10
  11    0.000      1.0000E-10  1.0000E-10  1.0000E-10  1.0000E-10  1.0000E-10  1.0000E-10  2.0000E-10  5.0000E-10   0.000    
  12   1.0000E-10  1.0000E-10  1.0000E-10  1.0000E-10  1.0000E-10  1.0000E-10  1.0000E-10  1.0000E-10  2.0000E-10   0.000    
  13   1.0000E-10  1.0000E-10  2.0000E-10  2.0000E-10  2.0000E-10  2.0000E-10  2.0000E-10  1.0000E-10  1.0000E-10   0.000    
  14    0.000      2.0000E-10  5.0000E-10  5.0000E-10  5.0000E-10  5.0000E-10  5.0000E-10  2.0000E-10  1.0000E-10   0.000    
  15    0.000       0.000      8.0000E-10  8.0000E-10  8.0000E-10  8.0000E-10   0.000       0.000       0.000       0.000    

                  ET RATE =  5.000000E-10

 USING ET EXTINCTION DEPTH FROM PREVIOUS STRESS PERIOD. CURRENT PERIOD IS:      16

 USING EXTINCTION WATER CONTENT FROM PREVIOUS STRESS PERIOD. CURRENT PERIOD IS:      16

 USING AIR ENTRY PRESSURE FROM PREVIOUS STRESS PERIOD. CURRENT PERIOD IS:      16

 USING ROOT PRESSURE HEAD FROM PREVIOUS STRESS PERIOD. CURRENT PERIOD IS:      16

 USING ROOT ACTIVITY FROM PREVIOUS STRESS PERIOD. CURRENT PERIOD IS:      16

 PROCESSING AG STRESS PERIOD DATA

 READING AG STRESS PERIOD DATA

 READING IRRIGATION WELL

 NO IRRPOND OR REUSING IRRPOND DATA FROM LAST STRESS PERIOD

 END PROCESSING AG STRESS PERIOD DATA OPTIONS
 
 SOLVING FOR HEAD 
                                                   Max.-Head-Change                         Max.-Flux-Residual
  Residual-Control   Outer-Iter.   Inner-Iter.     Column Row Layer    Maximum-Head-Change  Column Row Layer    Maximum-Flux-Residual          L2-NORM 
          0                 1           2             4   13     1       0.2656873078E-01       4   13    1         0.1538205623E+01      0.3144618695E+01
          0                 2           2             4   13     1      -0.2555366016E-02       4   13    1        -0.1521186408E+00      0.3066421795E+00
          0                 3           2             4   13     1       0.1712876906E-03       4   13    1         0.1048410592E-01      0.2073977849E-01
          0                 4           1             4   13     1      -0.6621570497E-05       4   13    1        -0.4167483785E-03      0.8013869297E-03

    ------------------------------------------------
       NWT REQUIRED            4 OUTER ITERATIONS 
       AND A TOTAL OF          7 INNER ITERATIONS.
    ------------------------------------------------

 NO OUTPUT CONTROL FOR STRESS PERIOD   16   TIME STEP    1
 
 SOLVING FOR HEAD 
                                                   Max.-Head-Change                         Max.-Flux-Residual
  Residual-Control   Outer-Iter.   Inner-Iter.     Column Row Layer    Maximum-Head-Change  Column Row Layer    Maximum-Flux-Residual          L2-NORM 
          0                 1           2             2   13     1       0.2423797238E-01       4   13    1         0.1381136378E+01      0.2941403772E+01
          0                 2           2             4   13     1      -0.2295636296E-02       4   13    1        -0.1365833730E+00      0.2872326913E+00
          0                 3           2             4   13     1       0.1538714403E-03       4   13    1         0.9412941852E-02      0.1945927393E-01
          0                 4           1             4   13     1      -0.5964658166E-05       4   13    1        -0.3751921549E-03      0.7551819106E-03

    ------------------------------------------------
       NWT REQUIRED            4 OUTER ITERATIONS 
       AND A TOTAL OF          7 INNER ITERATIONS.
    ------------------------------------------------

 NO OUTPUT CONTROL FOR STRESS PERIOD   16   TIME STEP    2
 
 SOLVING FOR HEAD 
                                                   Max.-Head-Change                         Max.-Flux-Residual
  Residual-Control   Outer-Iter.   Inner-Iter.     Column Row Layer    Maximum-Head-Change  Column Row Layer    Maximum-Flux-Residual          L2-NORM 
          0                 1           2             2   13     1       0.2225852350E-01       2   13    1         0.1263611573E+01      0.2760473277E+01
          0                 2           2             4   13     1      -0.2063381809E-02       4   13    1        -0.1226983243E+00      0.2698503473E+00
          0                 3           2             4   13     1       0.1382725364E-03       4   13    1         0.8454019559E-02      0.1831388258E-01
          0                 4           1             4   13     1      -0.5326718518E-05       4   13    1        -0.3348526161E-03      0.7123797346E-03

    ------------------------------------------------
       NWT REQUIRED            4 OUTER ITERATIONS 
       AND A TOTAL OF          7 INNER ITERATIONS.
    ------------------------------------------------

 NO OUTPUT CONTROL FOR STRESS PERIOD   16   TIME STEP    3
 
 SOLVING FOR HEAD 
                                                   Max.-Head-Change                         Max.-Flux-Residual
  Residual-Control   Outer-Iter.   Inner-Iter.     Column Row Layer    Maximum-Head-Change  Column Row Layer    Maximum-Flux-Residual          L2-NORM 
          0                 1           2             2   13     1       0.2044114474E-01       2   13    1         0.1160334475E+01      0.2599544116E+01
          0                 2           2             2   13     1      -0.1892602814E-02       4   13    1        -0.1104623909E+00      0.2545325538E+00
          0                 3           2             4   13     1       0.1245471927E-03       4   13    1         0.7612349526E-02      0.1730742915E-01
          0                 4           1             4   13     1      -0.4839495059E-05       4   13    1        -0.3041553273E-03      0.6764463270E-03

    ------------------------------------------------
       NWT REQUIRED            4 OUTER ITERATIONS 
       AND A TOTAL OF          7 INNER ITERATIONS.
    ------------------------------------------------

 NO OUTPUT CONTROL FOR STRESS PERIOD   16   TIME STEP    4
 
 SOLVING FOR HEAD 
                                                   Max.-Head-Change                         Max.-Flux-Residual
  Residual-Control   Outer-Iter.   Inner-Iter.     Column Row Layer    Maximum-Head-Change  Column Row Layer    Maximum-Flux-Residual          L2-NORM 
          0                 1           2             2   13     1       0.1877275471E-01       2   13    1         0.1065525350E+01      0.2456573421E+01
          0                 2           2             2   13     1      -0.1739362294E-02       2   13    1        -0.1014830620E+00      0.2407883737E+00
          0                 3           1             4   13     1       0.1118743678E-03       4   13    1         0.6833503382E-02      0.1640383473E-01
          0                 4           1             4   13     1      -0.4335498661E-05       4   13    1        -0.2723027665E-03      0.6424734765E-03

    ------------------------------------------------
       NWT REQUIRED            4 OUTER ITERATIONS 
       AND A TOTAL OF          6 INNER ITERATIONS.
    ------------------------------------------------

 NO OUTPUT CONTROL FOR STRESS PERIOD   16   TIME STEP    5
 
 SOLVING FOR HEAD 
                                                   Max.-Head-Change                         Max.-Flux-Residual
  Residual-Control   Outer-Iter.   Inner-Iter.     Column Row Layer    Maximum-Head-Change  Column Row Layer    Maximum-Flux-Residual          L2-NORM 
          0                 1           2             2   13     1       0.1724122979E-01       2   13    1         0.9784954984E+00      0.2329704273E+01
          0                 2           2             2   13     1      -0.1598543272E-02       2   13    1        -0.9325666493E-01      0.2286694695E+00
          0                 3           1             2   13     1       0.1016105354E-03       4   13    1         0.6148171743E-02      0.1560916699E-01
          0                 4           1             4   13     1      -0.3912989923E-05       4   13    1        -0.2456165685E-03      0.6132285317E-03

    ------------------------------------------------
       NWT REQUIRED            4 OUTER ITERATIONS 
       AND A TOTAL OF          6 INNER ITERATIONS.
    ------------------------------------------------

 NO OUTPUT CONTROL FOR STRESS PERIOD   16   TIME STEP    6
 
 SOLVING FOR HEAD 
                                                   Max.-Head-Change                         Max.-Flux-Residual
  Residual-Control   Outer-Iter.   Inner-Iter.     Column Row Layer    Maximum-Head-Change  Column Row Layer    Maximum-Flux-Residual          L2-NORM 
          0                 1           2             2   13     1       0.1583552240E-01       2   13    1         0.8986175009E+00      0.2217246818E+01
          0                 2           2             2   13     1      -0.1469129106E-02       2   13    1        -0.8569678818E-01      0.2179330918E+00
          0                 3           1             2   13     1       0.9347044402E-04       2   13    1         0.5603603277E-02      0.1490467528E-01

    ------------------------------------------------
       NWT REQUIRED            3 OUTER ITERATIONS 
       AND A TOTAL OF          5 INNER ITERATIONS.
    ------------------------------------------------

 NO OUTPUT CONTROL FOR STRESS PERIOD   16   TIME STEP    7
 
 SOLVING FOR HEAD 
                                                   Max.-Head-Change                         Max.-Flux-Residual
  Residual-Control   Outer-Iter.   Inner-Iter.     Column Row Layer    Maximum-Head-Change  Column Row Layer    Maximum-Flux-Residual          L2-NORM 
          0                 1           2             2   13     1       0.1454506988E-01       2   13    1         0.8252913128E+00      0.2117597419E+01
          0                 2           2             2   13     1      -0.1350177667E-02       2   13    1        -0.7874839678E-01      0.2084222757E+00
          0                 3           1             2   13     1       0.8597604476E-04       2   13    1         0.5153641707E-02      0.1428106726E-01

    ------------------------------------------------
       NWT REQUIRED            3 OUTER ITERATIONS 
       AND A TOTAL OF          5 INNER ITERATIONS.
    ------------------------------------------------

 NO OUTPUT CONTROL FOR STRESS PERIOD   16   TIME STEP    8
 
 SOLVING FOR HEAD 
                                                   Max.-Head-Change                         Max.-Flux-Residual
  Residual-Control   Outer-Iter.   Inner-Iter.     Column Row Layer    Maximum-Head-Change  Column Row Layer    Maximum-Flux-Residual          L2-NORM 
          0                 1           2             2   13     1       0.1336078124E-01       2   13    1         0.7580003006E+00      0.2029349968E+01
          0                 2           2             2   13     1      -0.1240922346E-02       2   13    1        -0.7236668267E-01      0.2000047365E+00
          0                 3           1             2   13     1       0.7907707758E-04       2   13    1         0.4739430662E-02      0.1372989217E-01

    ------------------------------------------------
       NWT REQUIRED            3 OUTER ITERATIONS 
       AND A TOTAL OF          5 INNER ITERATIONS.
    ------------------------------------------------

 NO OUTPUT CONTROL FOR STRESS PERIOD   16   TIME STEP    9
 
 SOLVING FOR HEAD 
                                                   Max.-Head-Change                         Max.-Flux-Residual
  Residual-Control   Outer-Iter.   Inner-Iter.     Column Row Layer    Maximum-Head-Change  Column Row Layer    Maximum-Flux-Residual          L2-NORM 
          0                 1           2             2   13     1       0.1227393310E-01       2   13    1         0.6962486931E+00      0.1951189213E+01
          0                 2           2             2   13     1      -0.1140535788E-02       2   13    1        -0.6650332310E-01      0.1925495603E+00
          0                 3           1             2   13     1       0.7273841817E-04       2   13    1         0.4358917812E-02      0.1324127592E-01

    ------------------------------------------------
       NWT REQUIRED            3 OUTER ITERATIONS 
       AND A TOTAL OF          5 INNER ITERATIONS.
    ------------------------------------------------

 NO OUTPUT CONTROL FOR STRESS PERIOD   16   TIME STEP   10
 
 SOLVING FOR HEAD 
                                                   Max.-Head-Change                         Max.-Flux-Residual
  Residual-Control   Outer-Iter.   Inner-Iter.     Column Row Layer    Maximum-Head-Change  Column Row Layer    Maximum-Flux-Residual          L2-NORM 
          0                 1           2             2   13     1       0.1127652541E-01       2   13    1         0.6395818441E+00      0.1881946512E+01
          0                 2           2             2   13     1      -0.1048335403E-02       2   13    1        -0.6111840651E-01      0.1859451153E+00
          0                 3           1             2   13     1       0.6690123166E-04       2   13    1         0.4008503092E-02      0.1280863875E-01

    ------------------------------------------------
       NWT REQUIRED            3 OUTER ITERATIONS 
       AND A TOTAL OF          5 INNER ITERATIONS.
    ------------------------------------------------

 NO OUTPUT CONTROL FOR STRESS PERIOD   16   TIME STEP   11
 
 SOLVING FOR HEAD 
                                                   Max.-Head-Change                         Max.-Flux-Residual
  Residual-Control   Outer-Iter.   Inner-Iter.     Column Row Layer    Maximum-Head-Change  Column Row Layer    Maximum-Flux-Residual          L2-NORM 
          0                 1           2             2   13     1       0.1036129717E-01       2   13    1         0.5875870583E+00      0.1820551368E+01
          0                 2           2             2   13     1      -0.9636878791E-03       2   13    1        -0.5617494636E-01      0.1800895873E+00
          0                 3           1             4    7     1       0.6272153612E-04       2   13    1         0.3688094532E-02      0.1242574909E-01

    ------------------------------------------------
       NWT REQUIRED            3 OUTER ITERATIONS 
       AND A TOTAL OF          5 INNER ITERATIONS.
    ------------------------------------------------

 NO OUTPUT CONTROL FOR STRESS PERIOD   16   TIME STEP   12
 
 SOLVING FOR HEAD 
                                                   Max.-Head-Change                         Max.-Flux-Residual
  Residual-Control   Outer-Iter.   Inner-Iter.     Column Row Layer    Maximum-Head-Change  Column Row Layer    Maximum-Flux-Residual          L2-NORM 
          0                 1           2             2   13     1       0.9521421935E-02       2   13    1         0.5398761502E+00      0.1766053266E+01
          0                 2           2             4    7     1      -0.9148930097E-03       2   13    1        -0.5163283208E-01      0.1748887878E+00
          0                 3           1             4    7     1       0.6225384584E-04       4    7    1         0.3443948232E-02      0.1208436279E-01

    ------------------------------------------------
       NWT REQUIRED            3 OUTER ITERATIONS 
       AND A TOTAL OF          5 INNER ITERATIONS.
    ------------------------------------------------

 NO OUTPUT CONTROL FOR STRESS PERIOD   16   TIME STEP   13
 
 SOLVING FOR HEAD 
                                                   Max.-Head-Change                         Max.-Flux-Residual
  Residual-Control   Outer-Iter.   Inner-Iter.     Column Row Layer    Maximum-Head-Change  Column Row Layer    Maximum-Flux-Residual          L2-NORM 
          0                 1           2             4    7     1       0.9340959391E-02       2   13    1         0.4960966684E+00      0.1717598512E+01
          0                 2           2             4    7     1      -0.9081292718E-03       4    7    1        -0.4887015993E-01      0.1702624666E+00
          0                 3           1             4    7     1       0.6179360638E-04       4    7    1         0.3418322329E-02      0.1178071077E-01

    ------------------------------------------------
       NWT REQUIRED            3 OUTER ITERATIONS 
       AND A TOTAL OF          5 INNER ITERATIONS.
    ------------------------------------------------

 NO OUTPUT CONTROL FOR STRESS PERIOD   16   TIME STEP   14
 
 SOLVING FOR HEAD 
                                                   Max.-Head-Change                         Max.-Flux-Residual
  Residual-Control   Outer-Iter.   Inner-Iter.     Column Row Layer    Maximum-Head-Change  Column Row Layer    Maximum-Flux-Residual          L2-NORM 
          0                 1           2             4    7     1       0.9272214027E-02       4    7    1         0.4853450112E+00      0.1674432348E+01
          0                 2           2             4    7     1      -0.9014458046E-03       4    7    1        -0.4850816323E-01      0.1661373127E+00
          0                 3           1             4    7     1       0.6133882886E-04       4    7    1         0.3393001615E-02      0.1150897096E-01

    ------------------------------------------------
       NWT REQUIRED            3 OUTER ITERATIONS 
       AND A TOTAL OF          5 INNER ITERATIONS.
    ------------------------------------------------

 NO OUTPUT CONTROL FOR STRESS PERIOD   16   TIME STEP   15
 
 SOLVING FOR HEAD 
                                                   Max.-Head-Change                         Max.-Flux-Residual
  Residual-Control   Outer-Iter.   Inner-Iter.     Column Row Layer    Maximum-Head-Change  Column Row Layer    Maximum-Flux-Residual          L2-NORM 
          0                 1           2             4    7     1       0.9204404339E-02       4    7    1         0.4817732829E+00      0.1635876790E+01
          0                 2           2             4    7     1      -0.8948533057E-03       4    7    1        -0.4815118185E-01      0.1624486582E+00
          0                 3           1             4    7     1       0.6089024178E-04       4    7    1         0.3368031736E-02      0.1126674076E-01

    ------------------------------------------------
       NWT REQUIRED            3 OUTER ITERATIONS 
       AND A TOTAL OF          5 INNER ITERATIONS.
    ------------------------------------------------

 NO OUTPUT CONTROL FOR STRESS PERIOD   16   TIME STEP   16
 
 SOLVING FOR HEAD 
                                                   Max.-Head-Change                         Max.-Flux-Residual
  Residual-Control   Outer-Iter.   Inner-Iter.     Column Row Layer    Maximum-Head-Change  Column Row Layer    Maximum-Flux-Residual          L2-NORM 
          0                 1           2             4    7     1       0.9137505538E-02       4    7    1         0.4782500676E+00      0.1601351755E+01
          0                 2           2             4    7     1      -0.8883493648E-03       4    7    1        -0.4779904927E-01      0.1591425047E+00
          0                 3           1             4    7     1       0.6044768027E-04       4    7    1         0.3343401005E-02      0.1104868582E-01

    ------------------------------------------------
       NWT REQUIRED            3 OUTER ITERATIONS 
       AND A TOTAL OF          5 INNER ITERATIONS.
    ------------------------------------------------

 NO OUTPUT CONTROL FOR STRESS PERIOD   16   TIME STEP   17
 
 SOLVING FOR HEAD 
                                                   Max.-Head-Change                         Max.-Flux-Residual
  Residual-Control   Outer-Iter.   Inner-Iter.     Column Row Layer    Maximum-Head-Change  Column Row Layer    Maximum-Flux-Residual          L2-NORM 
          0                 1           2             4    7     1       0.9071494206E-02       4    7    1         0.4747740803E+00      0.1570342899E+01
          0                 2           2             4    7     1      -0.8819317046E-03       4    7    1        -0.4745163697E-01      0.1561689582E+00
          0                 3           1             4    7     1       0.6001098992E-04       4    7    1         0.3319100450E-02      0.1085249608E-01

    ------------------------------------------------
       NWT REQUIRED            3 OUTER ITERATIONS 
       AND A TOTAL OF          5 INNER ITERATIONS.
    ------------------------------------------------

 NO OUTPUT CONTROL FOR STRESS PERIOD   16   TIME STEP   18
 
 SOLVING FOR HEAD 
                                                   Max.-Head-Change                         Max.-Flux-Residual
  Residual-Control   Outer-Iter.   Inner-Iter.     Column Row Layer    Maximum-Head-Change  Column Row Layer    Maximum-Flux-Residual          L2-NORM 
          0                 1           2             4    7     1       0.9006345308E-02       4    7    1         0.4713441068E+00      0.1542389898E+01
          0                 2           2             4    7     1      -0.8755978917E-03       4    7    1        -0.4710882365E-01      0.1534835496E+00
          0                 3           1             4    7     1       0.5958000470E-04       4    7    1         0.3295121575E-02      0.1067482525E-01

    ------------------------------------------------
       NWT REQUIRED            3 OUTER ITERATIONS 
       AND A TOTAL OF          5 INNER ITERATIONS.
    ------------------------------------------------

 NO OUTPUT CONTROL FOR STRESS PERIOD   16   TIME STEP   19
 
 SOLVING FOR HEAD 
                                                   Max.-Head-Change                         Max.-Flux-Residual
  Residual-Control   Outer-Iter.   Inner-Iter.     Column Row Layer    Maximum-Head-Change  Column Row Layer    Maximum-Flux-Residual          L2-NORM 
          0                 1           2             4    7     1       0.8942170004E-02       4    7    1         0.4679662206E+00      0.1517091335E+01
          0                 2           2             4    7     1      -0.8693587332E-03       4    7    1        -0.4677121635E-01      0.1510498729E+00
          0                 3           1             4    7     1       0.5915546054E-04       4    7    1         0.3271506862E-02      0.1051142050E-01

    ------------------------------------------------
       NWT REQUIRED            3 OUTER ITERATIONS 
       AND A TOTAL OF          5 INNER ITERATIONS.
    ------------------------------------------------

 NO OUTPUT CONTROL FOR STRESS PERIOD   16   TIME STEP   20
 
 SOLVING FOR HEAD 
                                                   Max.-Head-Change                         Max.-Flux-Residual
  Residual-Control   Outer-Iter.   Inner-Iter.     Column Row Layer    Maximum-Head-Change  Column Row Layer    Maximum-Flux-Residual          L2-NORM 
          0                 1           2             4    7     1       0.8878672834E-02       4    7    1         0.4646240703E+00      0.1494116323E+01
          0                 2           2             4    7     1      -0.8631855040E-03       4    7    1        -0.4643718074E-01      0.1488347033E+00
          0                 3           1             4    7     1       0.5873540264E-04       4    7    1         0.3248141993E-02      0.1036509190E-01

    ------------------------------------------------
       NWT REQUIRED            3 OUTER ITERATIONS 
       AND A TOTAL OF          5 INNER ITERATIONS.
    ------------------------------------------------

 NO OUTPUT CONTROL FOR STRESS PERIOD   16   TIME STEP   21
 
 SOLVING FOR HEAD 
                                                   Max.-Head-Change                         Max.-Flux-Residual
  Residual-Control   Outer-Iter.   Inner-Iter.     Column Row Layer    Maximum-Head-Change  Column Row Layer    Maximum-Flux-Residual          L2-NORM 
          0                 1           2             4    7     1       0.8815973274E-02       4    7    1         0.4613244517E+00      0.1473158639E+01
          0                 2           2             4    7     1      -0.8570898187E-03       4    7    1        -0.4610739604E-01      0.1468109453E+00
          0                 3           1             4    7     1       0.5832062125E-04       4    7    1         0.3225074437E-02      0.1023031788E-01

    ------------------------------------------------
       NWT REQUIRED            3 OUTER ITERATIONS 
       AND A TOTAL OF          5 INNER ITERATIONS.
    ------------------------------------------------

 NO OUTPUT CONTROL FOR STRESS PERIOD   16   TIME STEP   22
 
 SOLVING FOR HEAD 
                                                   Max.-Head-Change                         Max.-Flux-Residual
  Residual-Control   Outer-Iter.   Inner-Iter.     Column Row Layer    Maximum-Head-Change  Column Row Layer    Maximum-Flux-Residual          L2-NORM 
          0                 1           2             4    7     1       0.8754183992E-02       4    7    1         0.4580735600E+00      0.1453963573E+01
          0                 2           2             4    7     1      -0.8510826324E-03       4    7    1        -0.4578248150E-01      0.1449539983E+00
          0                 3           1             4    7     1       0.5791186154E-04       4    7    1         0.3202347534E-02      0.1010596698E-01

    ------------------------------------------------
       NWT REQUIRED            3 OUTER ITERATIONS 
       AND A TOTAL OF          5 INNER ITERATIONS.
    ------------------------------------------------

 NO OUTPUT CONTROL FOR STRESS PERIOD   16   TIME STEP   23
 
 SOLVING FOR HEAD 
                                                   Max.-Head-Change                         Max.-Flux-Residual
  Residual-Control   Outer-Iter.   Inner-Iter.     Column Row Layer    Maximum-Head-Change  Column Row Layer    Maximum-Flux-Residual          L2-NORM 
          0                 1           2             4    7     1       0.8693009906E-02       4    7    1         0.4548551203E+00      0.1436305611E+01
          0                 2           2             4    7     1      -0.8451352565E-03       4    7    1        -0.4546081044E-01      0.1432765383E+00
          0                 3           1             4    7     1       0.5750717214E-04       4    7    1         0.3179847547E-02      0.9993573566E-02

    ------------------------------------------------
       NWT REQUIRED            3 OUTER ITERATIONS 
       AND A TOTAL OF          5 INNER ITERATIONS.
    ------------------------------------------------

 NO OUTPUT CONTROL FOR STRESS PERIOD   16   TIME STEP   24
 
 SOLVING FOR HEAD 
                                                   Max.-Head-Change                         Max.-Flux-Residual
  Residual-Control   Outer-Iter.   Inner-Iter.     Column Row Layer    Maximum-Head-Change  Column Row Layer    Maximum-Flux-Residual          L2-NORM 
          0                 1           2             4    7     1       0.8632571772E-02       4    7    1         0.4516759497E+00      0.1419959122E+01
          0                 2           2             4    7     1      -0.8392594305E-03       4    7    1        -0.4514306423E-01      0.1416534772E+00
          0                 3           1             4    7     1       0.5710735075E-04       4    7    1         0.3157622051E-02      0.9883922137E-02

    ------------------------------------------------
       NWT REQUIRED            3 OUTER ITERATIONS 
       AND A TOTAL OF          5 INNER ITERATIONS.
    ------------------------------------------------

 NO OUTPUT CONTROL FOR STRESS PERIOD   16   TIME STEP   25
 
 SOLVING FOR HEAD 
                                                   Max.-Head-Change                         Max.-Flux-Residual
  Residual-Control   Outer-Iter.   Inner-Iter.     Column Row Layer    Maximum-Head-Change  Column Row Layer    Maximum-Flux-Residual          L2-NORM 
          0                 1           2             4    7     1       0.8572992441E-02       4    7    1         0.4485423093E+00      0.1404784970E+01
          0                 2           2             4    7     1      -0.8334670988E-03       4    7    1        -0.4482986863E-01      0.1401777065E+00
          0                 3           1             4    7     1       0.5671321118E-04       4    7    1         0.3135714889E-02      0.9785422201E-02

    ------------------------------------------------
       NWT REQUIRED            3 OUTER ITERATIONS 
       AND A TOTAL OF          5 INNER ITERATIONS.
    ------------------------------------------------

 NO OUTPUT CONTROL FOR STRESS PERIOD   16   TIME STEP   26
 
 SOLVING FOR HEAD 
                                                   Max.-Head-Change                         Max.-Flux-Residual
  Residual-Control   Outer-Iter.   Inner-Iter.     Column Row Layer    Maximum-Head-Change  Column Row Layer    Maximum-Flux-Residual          L2-NORM 
          0                 1           2             4    7     1       0.8514109699E-02       4    7    1         0.4454458241E+00      0.1390644434E+01
          0                 2           2             4    7     1      -0.8277424903E-03       4    7    1        -0.4452038660E-01      0.1387970136E+00
          0                 3           1             4    7     1       0.5632367999E-04       4    7    1         0.3114067476E-02      0.9690989481E-02

    ------------------------------------------------
       NWT REQUIRED            3 OUTER ITERATIONS 
       AND A TOTAL OF          5 INNER ITERATIONS.
    ------------------------------------------------

 NO OUTPUT CONTROL FOR STRESS PERIOD   16   TIME STEP   27
 
 SOLVING FOR HEAD 
                                                   Max.-Head-Change                         Max.-Flux-Residual
  Residual-Control   Outer-Iter.   Inner-Iter.     Column Row Layer    Maximum-Head-Change  Column Row Layer    Maximum-Flux-Residual          L2-NORM 
          0                 1           2             4    7     1       0.8455908193E-02       4    7    1         0.4423854558E+00      0.1377415763E+01
          0                 2           2             4    7     1      -0.8220841123E-03       4    7    1        -0.4421451434E-01      0.1375046386E+00
          0                 3           1             4    7     1       0.5593865530E-04       4    7    1         0.3092672566E-02      0.9603462876E-02

    ------------------------------------------------
       NWT REQUIRED            3 OUTER ITERATIONS 
       AND A TOTAL OF          5 INNER ITERATIONS.
    ------------------------------------------------

 NO OUTPUT CONTROL FOR STRESS PERIOD   16   TIME STEP   28
 
 SOLVING FOR HEAD 
                                                   Max.-Head-Change                         Max.-Flux-Residual
  Residual-Control   Outer-Iter.   Inner-Iter.     Column Row Layer    Maximum-Head-Change  Column Row Layer    Maximum-Flux-Residual          L2-NORM 
          0                 1           2             4    7     1       0.8398371873E-02       4    7    1         0.4393604085E+00      0.1364999995E+01
          0                 2           2             4    7     1      -0.8164904044E-03       4    7    1        -0.4391217234E-01      0.1362892364E+00
          0                 3           1             4    7     1       0.5555803083E-04       4    7    1         0.3071524551E-02      0.9520601466E-02

    ------------------------------------------------
       NWT REQUIRED            3 OUTER ITERATIONS 
       AND A TOTAL OF          5 INNER ITERATIONS.
    ------------------------------------------------

 NO OUTPUT CONTROL FOR STRESS PERIOD   16   TIME STEP   29
 
 SOLVING FOR HEAD 
                                                   Max.-Head-Change                         Max.-Flux-Residual
  Residual-Control   Outer-Iter.   Inner-Iter.     Column Row Layer    Maximum-Head-Change  Column Row Layer    Maximum-Flux-Residual          L2-NORM 
          0                 1           2             4    7     1       0.8341442786E-02       4    7    1         0.4363698499E+00      0.1310327467E+01
          0                 2           2             4    7     1      -0.8109557354E-03       4    7    1        -0.4361327751E-01      0.1309745715E+00
          0                 3           1             4    7     1       0.5518142472E-04       4    7    1         0.3050617716E-02      0.9162796494E-02

    ------------------------------------------------
       NWT REQUIRED            3 OUTER ITERATIONS 
       AND A TOTAL OF          5 INNER ITERATIONS.
    ------------------------------------------------

 NO OUTPUT CONTROL FOR STRESS PERIOD   16   TIME STEP   30



 STREAM LISTING     PERIOD     16   STEP       30

 LAYER ROW COL. STREAM  RCH.  FLOW INTO     FLOW TO   FLOW OUT OF   OVRLND.     DIRECT     STREAM       STREAM     STREAM     STREAM   STREAMBED  STREAMBED
                SEG.NO.  NO.  STRM. RCH.    AQUIFER    STRM. RCH.    RUNOFF     PRECIP       ET          HEAD       DEPTH      WIDTH   CONDCTNC.   GRADIENT

   1    1    1     1     1    8.8455E+01  4.5169E-01   8.8003E+01  0.000E+00  0.000E+00  0.000E+00  1.09480E+03  1.756E+00  2.111E+01  9.498E-02  1.585E+00
   1    2    2     1     2    8.8003E+01  7.0076E-01   8.7302E+01  0.000E+00  0.000E+00  0.000E+00  1.08981E+03  1.753E+00  2.106E+01  1.474E-01  1.584E+00
   1    3    3     1     3    8.7302E+01  5.9885E-01   8.6704E+01  0.000E+00  0.000E+00  0.000E+00  1.08417E+03  1.751E+00  2.101E+01  1.260E-01  1.584E+00
   1    3    4     1     4    8.6704E+01  5.5245E-01   8.6151E+01  0.000E+00  0.000E+00  0.000E+00  1.07916E+03  1.749E+00  2.096E+01  1.163E-01  1.583E+00
   1    4    5     2     1    8.4151E+01  4.2881E-01   8.3722E+01  0.000E+00  0.000E+00  0.000E+00  1.07443E+03  2.498E+00  1.200E+01  7.800E-02  1.833E+00
   1    5    6     2     2    8.3722E+01  3.2945E-01   8.3393E+01  0.000E+00  0.000E+00  0.000E+00  1.06900E+03  2.491E+00  1.200E+01  6.000E-02  1.830E+00
   1    6    6     2     3    8.3393E+01  3.2909E-01   8.3064E+01  0.000E+00  0.000E+00  0.000E+00  1.06428E+03  2.485E+00  1.200E+01  6.000E-02  1.828E+00
   1    7    6     2     4    8.3064E+01  3.2874E-01   8.2735E+01  0.000E+00  0.000E+00  0.000E+00  1.05955E+03  2.479E+00  1.200E+01  6.000E-02  1.826E+00
   1    8    6     2     5    8.2735E+01  3.2839E-01   8.2407E+01  0.000E+00  0.000E+00  0.000E+00  1.05483E+03  2.473E+00  1.200E+01  6.000E-02  1.824E+00
   1    3    5     3     1    2.0000E+00  2.8252E-01   1.7175E+00  0.000E+00  0.000E+00  0.000E+00  1.07555E+03  1.909E+00  9.636E+00  7.227E-02  1.955E+00
   1    3    6     3     2    1.7175E+00  2.4905E-01   1.4684E+00  0.000E+00  0.000E+00  0.000E+00  1.07264E+03  1.727E+00  8.909E+00  6.682E-02  1.864E+00
   1    3    7     3     3    1.4684E+00  1.9718E-01   1.2712E+00  0.000E+00  0.000E+00  0.000E+00  1.06987E+03  1.555E+00  8.218E+00  5.547E-02  1.777E+00
   1    4    8     3     4    1.2712E+00  2.2567E-01   1.0456E+00  0.000E+00  0.000E+00  0.000E+00  1.06682E+03  1.364E+00  7.455E+00  6.709E-02  1.682E+00
   1    5    8     3     5    1.0456E+00  1.5790E-01   8.8768E-01  0.000E+00  0.000E+00  0.000E+00  1.06362E+03  1.164E+00  6.655E+00  4.991E-02  1.582E+00
   1    6    8     3     6    8.8768E-01  5.5980E-02   8.3170E-01  0.000E+00  0.000E+00  0.000E+00  1.06158E+03  1.036E+00  6.145E+00  1.844E-02  1.518E+00
   1    5   10     4     1    1.0000E+01  9.0919E-02   9.9091E+00  0.000E+00  0.000E+00  0.000E+00  1.07836E+03  6.368E-01  1.000E+01  2.500E-02  1.212E+00
   1    5    9     4     2    9.9091E+00  1.8158E-01   9.7275E+00  0.000E+00  0.000E+00  0.000E+00  1.07154E+03  6.315E-01  1.000E+01  5.000E-02  1.211E+00
   1    6    8     4     3    9.7275E+00  1.2689E-01   9.6006E+00  0.000E+00  0.000E+00  0.000E+00  1.06381E+03  6.256E-01  1.000E+01  3.500E-02  1.209E+00
   1    6    8     5     1    1.0432E+01  2.2686E-01   1.0205E+01  0.000E+00  0.000E+00  0.000E+00  1.05868E+03  6.790E-01  1.542E+01  6.166E-02  1.226E+00
   1    7    7     5     2    1.0205E+01  2.7894E-01   9.9265E+00  0.000E+00  0.000E+00  0.000E+00  1.05417E+03  6.732E-01  1.519E+01  7.594E-02  1.224E+00
   1    8    7     5     3    9.9265E+00  1.9221E-01   9.7343E+00  0.000E+00  0.000E+00  0.000E+00  1.04992E+03  6.676E-01  1.497E+01  5.241E-02  1.223E+00
   1    8    6     5     4    9.7343E+00  1.3577E-01   9.5985E+00  0.000E+00  0.000E+00  0.000E+00  1.04691E+03  6.637E-01  1.482E+01  3.706E-02  1.221E+00
   1    9    6     6     1    9.2005E+01  3.3993E-01   9.1665E+01  0.000E+00  0.000E+00  0.000E+00  1.04539E+03  2.665E+00  1.200E+01  6.000E-02  1.888E+00
   1   10    7     6     2    9.1665E+01  3.3957E-01   9.1326E+01  0.000E+00  0.000E+00  0.000E+00  1.04084E+03  2.660E+00  1.200E+01  6.000E-02  1.887E+00
   1   11    7     6     3    9.1326E+01  3.3922E-01   9.0986E+01  0.000E+00  0.000E+00  0.000E+00  1.03629E+03  2.654E+00  1.200E+01  6.000E-02  1.885E+00
   1   12    7     6     4    9.0986E+01  3.3886E-01   9.0648E+01  0.000E+00  0.000E+00  0.000E+00  1.03174E+03  2.648E+00  1.200E+01  6.000E-02  1.883E+00
   1   13    7     6     5    9.0648E+01  3.4508E-02   9.0613E+01  0.000E+00  0.000E+00  0.000E+00  1.02855E+03  2.644E+00  1.200E+01  2.400E-02  4.793E-01
   1   14    9     7     1    1.5000E+02  1.3299E+00   1.4867E+02  0.000E+00  0.000E+00  0.000E+00  1.03987E+03  2.288E+00  5.529E+01  5.593E-01  7.926E-01
   1   13    8     7     2    1.4867E+02  1.8179E+00   1.4685E+02  0.000E+00  0.000E+00  0.000E+00  1.03478E+03  2.279E+00  5.526E+01  6.148E-01  9.857E-01
   1   13    7     7     3    1.4685E+02  1.4377E+00   1.4541E+02  0.000E+00  0.000E+00  0.000E+00  1.02969E+03  2.271E+00  5.522E+01  5.585E-01  8.581E-01
   1   13    6     8     1    2.3603E+02  1.1627E+00   2.3486E+02  0.000E+00  0.000E+00  0.000E+00  1.02521E+03  3.336E+00  4.837E+01  4.929E-01  7.863E-01
   1   13    5     8     2    2.3486E+02  3.2265E-01   2.3454E+02  0.000E+00  0.000E+00  0.000E+00  1.01896E+03  3.332E+00  4.831E+01  4.923E-01  2.185E-01
   1   13    4     8     3    2.3454E+02 -2.2113E+00   2.3675E+02  0.000E+00  0.000E+00  0.000E+00  1.01271E+03  3.337E+00  4.838E+01  4.930E+00 -1.495E-01
   1   13    3     8     4    2.3675E+02 -3.5801E+00   2.4033E+02  0.000E+00  0.000E+00  0.000E+00  1.00648E+03  3.352E+00  4.861E+01  4.953E+00 -2.409E-01
   1   13    2     8     5    2.4033E+02 -2.5573E+00   2.4289E+02  0.000E+00  0.000E+00  0.000E+00  1.00024E+03  3.368E+00  4.884E+01  4.977E+00 -1.713E-01
   1   13    1     8     6    2.4289E+02 -1.8857E+00   2.4478E+02  0.000E+00  0.000E+00  0.000E+00  9.95255E+02  3.380E+00  4.901E+01  2.996E+00 -2.098E-01





UNSATURATED ZONE PACKAGE VOLUMETRIC BUDGET FOR  TIME STEP    30 STRESS PERIOD   16
  ------------------------------------------------------------------------------



     CUMULATIVE VOLUMES      L**3       RATES FOR THIS TIME STEP      L**3/T
     ------------------                 ------------------------

           IN:                                      IN:
           ---                                      ---
        INFILTRATION =   468555158.6365          INFILTRATION =           0.8475

          OUT:                                     OUT:
          ----                                     ----
              UZF ET =   429267002.1963                UZF ET =           0.7500
        UZF RECHARGE =    37934422.1554          UZF RECHARGE =           0.0001

            IN - OUT =     1353734.2849              IN - OUT =       9.7389E-02

          STORAGE:                                 STORAGE:
          --------                                 --------
      STORAGE CHANGE =     1353734.8455        STORAGE CHANGE =       9.7389E-02

 PERCENT DISCREPANCY IS DIFFERENCE BETWEEN IN-OUT MINUS CHANGE IN STORAGE
 DIVIDED BY THE AVERAGE OF IN AND OUT TIMES 100

 PERCENT DISCREPANCY =           0.00     PERCENT DISCREPANCY =           0.00






1
  VOLUMETRIC BUDGET FOR AGRICULTURAL FIELDS AT  END OF TIME STEP   30, STRESS PERIOD  16
  ------------------------------------------------------------------------------

     CUMULATIVE VOLUMES      L**3       RATES FOR THIS TIME STEP      L**3/T
     ------------------                 ------------------------

           IN:                                      IN:
           ---                                      ---
               AG WELLS  =   435047680.0000                 AG WELLS  =           0.0000
      DIVERSION SEGMENTS =           0.0000        DIVERSION SEGMENTS =           0.0000
       IRRIGATION PONDS  =           0.0000         IRRIGATION PONDS  =           0.0000
           GW IRRIGATION =           0.0000             GW IRRIGATION =           0.0000
           SW IRRIGATION =           0.0000             SW IRRIGATION =           0.0000
        SYSTEM LOSSES GW =           0.0000          SYSTEM LOSSES GW =           0.0000
        SYSTEM LOSSES SW =           0.0000          SYSTEM LOSSES SW =           0.0000

                TOTAL IN =   435047680.0000                  TOTAL IN =           0.0000

          OUT:                                     OUT:
          ----                                     ----
               AG WELLS  =           0.0000                 AG WELLS  =           0.0000
      DIVERSION SEGMENTS =           0.0000        DIVERSION SEGMENTS =           0.0000
       IRRIGATION PONDS  =           0.0000         IRRIGATION PONDS  =           0.0000
           GW IRRIGATION =   435047680.0000             GW IRRIGATION =           0.0000
           SW IRRIGATION =           0.0000             SW IRRIGATION =           0.0000
        SYSTEM LOSSES GW =           0.0000          SYSTEM LOSSES GW =           0.0000
        SYSTEM LOSSES SW =           0.0000          SYSTEM LOSSES SW =           0.0000

               TOTAL OUT =   435047680.0000                 TOTAL OUT =           0.0000

                IN - OUT =           0.0000                  IN - OUT =           0.0000

     PERCENT DISCREPANCY =           0.00         PERCENT DISCREPANCY =           0.00



1
  VOLUMETRIC BUDGET FOR ENTIRE MODEL AT END OF TIME STEP   30, STRESS PERIOD  16
  ------------------------------------------------------------------------------

     CUMULATIVE VOLUMES      L**3       RATES FOR THIS TIME STEP      L**3/T
     ------------------                 ------------------------

           IN:                                      IN:
           ---                                      ---
             STORAGE     =   597465728.0000               STORAGE     =           2.7580
       CONSTANT HEAD     =           0.0000         CONSTANT HEAD     =           0.0000
     HEAD DEP BOUNDS     =    11284206.0000       HEAD DEP BOUNDS     =           0.2854
      STREAM LEAKAGE     =   491950240.0000        STREAM LEAKAGE     =          13.9127
        UZF RECHARGE     =    37934444.0000          UZF RECHARGE     =       1.1087E-04
               GW ET     =           0.0000                 GW ET     =           0.0000
     SURFACE LEAKAGE     =           0.0000       SURFACE LEAKAGE     =           0.0000
           AG WELLS      =           0.0000             AG WELLS      =           0.0000

                TOTAL IN =  1138634624.0000                  TOTAL IN =          16.9561

          OUT:                                     OUT:
          ----                                     ----
             STORAGE     =   271257408.0000               STORAGE     =           6.4177
       CONSTANT HEAD     =           0.0000         CONSTANT HEAD     =           0.0000
     HEAD DEP BOUNDS     =    11629940.0000       HEAD DEP BOUNDS     =           0.2996
      STREAM LEAKAGE     =   406938560.0000        STREAM LEAKAGE     =          10.2345
        UZF RECHARGE     =           0.0000          UZF RECHARGE     =           0.0000
               GW ET     =    13767628.0000                 GW ET     =       5.4025E-03
     SURFACE LEAKAGE     =           0.0000       SURFACE LEAKAGE     =           0.0000
           AG WELLS      =   435047680.0000             AG WELLS      =           0.0000

               TOTAL OUT =  1138641152.0000                 TOTAL OUT =          16.9572

                IN - OUT =       -6528.0000                  IN - OUT =      -1.0452E-03

     PERCENT DISCREPANCY =          -0.00         PERCENT DISCREPANCY =          -0.01






         TIME SUMMARY AT END OF TIME STEP   30 IN STRESS PERIOD   16
                    SECONDS     MINUTES      HOURS       DAYS        YEARS
                    -----------------------------------------------------------
   TIME STEP LENGTH  87667.      1461.1      24.352      1.0147     2.77799E-03
 STRESS PERIOD TIME 2.63000E+06  43833.      730.56      30.440     8.33397E-02
         TOTAL TIME 3.95364E+07 6.58940E+05  10982.      457.60      1.2528    
1
1
                            STRESS PERIOD NO.   17, LENGTH =   2630000.    
                            -----------------------------------------------

                              NUMBER OF TIME STEPS =    30

                               MULTIPLIER FOR DELT =     1.000

                            INITIAL TIME STEP SIZE =   87666.66    

 REUSING NON-PARAMETER GHB CELLS FROM LAST STRESS PERIOD

      2 GHB CELLS

 REUSING STREAM SEGMENT DATA FROM LAST STRESS PERIOD



            AREAL INFILTRATION RATE
 READING ON UNIT   19 WITH FORMAT: (FREE)              

            1           2           3           4           5           6           7           8           9          10
 ........................................................................................................................
   1   1.0000E-10  2.0000E-10   0.000       0.000       0.000       0.000       0.000       0.000       0.000       0.000    
   2   2.0000E-10  1.0000E-10  2.0000E-10   0.000       0.000      8.0000E-10  8.0000E-10  5.0000E-10   0.000       0.000    
   3    0.000      5.0000E-10  1.0000E-10  1.0000E-10  8.0000E-10  8.0000E-10  5.0000E-10  5.0000E-10   0.000       0.000    
   4   8.0000E-10  5.0000E-10  1.0000E-10  1.0000E-10  1.0000E-10  1.0000E-10  1.0000E-10  1.0000E-10  2.0000E-10   0.000    
   5   8.0000E-10  5.0000E-10  1.0000E-10  1.0000E-10  1.0000E-10  1.0000E-10  1.0000E-10  1.0000E-10  1.0000E-10  1.0000E-10
   6   8.0000E-10  5.0000E-10  5.0000E-10  2.0000E-10  2.0000E-10  1.0000E-10  1.0000E-10  1.0000E-10  1.0000E-10  5.0000E-10
   7   8.0000E-10  5.0000E-10  5.0000E-10  2.0000E-10  2.0000E-10  1.0000E-10  1.0000E-10  2.0000E-10  2.0000E-10   0.000    
   8    0.000      5.0000E-10  5.0000E-10  2.0000E-10  2.0000E-10  1.0000E-10  1.0000E-10  2.0000E-10  5.0000E-10   0.000    
   9    0.000      5.0000E-10  5.0000E-10  2.0000E-10  2.0000E-10  1.0000E-10  1.0000E-10  2.0000E-10  5.0000E-10   0.000    
  10    0.000      5.0000E-10  5.0000E-10  2.0000E-10  2.0000E-10  1.0000E-10  1.0000E-10  2.0000E-10  5.0000E-10  8.0000E-10
  11    0.000      1.0000E-10  1.0000E-10  1.0000E-10  1.0000E-10  1.0000E-10  1.0000E-10  2.0000E-10  5.0000E-10   0.000    
  12   1.0000E-10  1.0000E-10  1.0000E-10  1.0000E-10  1.0000E-10  1.0000E-10  1.0000E-10  1.0000E-10  2.0000E-10   0.000    
  13   1.0000E-10  1.0000E-10  2.0000E-10  2.0000E-10  2.0000E-10  2.0000E-10  2.0000E-10  1.0000E-10  1.0000E-10   0.000    
  14    0.000      2.0000E-10  5.0000E-10  5.0000E-10  5.0000E-10  5.0000E-10  5.0000E-10  2.0000E-10  1.0000E-10   0.000    
  15    0.000       0.000      8.0000E-10  8.0000E-10  8.0000E-10  8.0000E-10   0.000       0.000       0.000       0.000    

                  ET RATE =  2.500000E-08

 USING ET EXTINCTION DEPTH FROM PREVIOUS STRESS PERIOD. CURRENT PERIOD IS:      17

 USING EXTINCTION WATER CONTENT FROM PREVIOUS STRESS PERIOD. CURRENT PERIOD IS:      17

 USING AIR ENTRY PRESSURE FROM PREVIOUS STRESS PERIOD. CURRENT PERIOD IS:      17

 USING ROOT PRESSURE HEAD FROM PREVIOUS STRESS PERIOD. CURRENT PERIOD IS:      17

 USING ROOT ACTIVITY FROM PREVIOUS STRESS PERIOD. CURRENT PERIOD IS:      17

 PROCESSING AG STRESS PERIOD DATA

 READING AG STRESS PERIOD DATA

 READING IRRIGATION WELL

 NO IRRPOND OR REUSING IRRPOND DATA FROM LAST STRESS PERIOD

 END PROCESSING AG STRESS PERIOD DATA OPTIONS
 
 SOLVING FOR HEAD 
                                                   Max.-Head-Change                         Max.-Flux-Residual
  Residual-Control   Outer-Iter.   Inner-Iter.     Column Row Layer    Maximum-Head-Change  Column Row Layer    Maximum-Flux-Residual          L2-NORM 
          0                 1           2             4   13     1      -0.9977997454E-02       4   13    1        -0.5891840858E+00      0.1392867706E+01
          0                 2           2             4   13     1       0.9617802640E-03       4   13    1         0.5839380475E-01      0.1378896750E+00
          0                 3           1             4   13     1      -0.6467181772E-04       4   13    1        -0.4037257555E-02      0.9525554990E-02

    ------------------------------------------------
       NWT REQUIRED            3 OUTER ITERATIONS 
       AND A TOTAL OF          5 INNER ITERATIONS.
    ------------------------------------------------

 NO OUTPUT CONTROL FOR STRESS PERIOD   17   TIME STEP    1
 
 SOLVING FOR HEAD 
                                                   Max.-Head-Change                         Max.-Flux-Residual
  Residual-Control   Outer-Iter.   Inner-Iter.     Column Row Layer    Maximum-Head-Change  Column Row Layer    Maximum-Flux-Residual          L2-NORM 
          0                 1           2             3   13     1      -0.8803053335E-02       4   13    1        -0.5185713148E+00      0.1488140800E+01
          0                 2           2             4    7     1      -0.1225826117E-01       4    7    1        -0.6583560193E+00      0.1603481189E+01
          0                 3           2             4    7     1       0.8338293891E-03       4    7    1         0.4603430582E-01      0.1121250492E+00
          0                 4           1             4    7     1      -0.3317886308E-04       4    7    1        -0.1882806441E-02      0.4585402102E-02

    ------------------------------------------------
       NWT REQUIRED            4 OUTER ITERATIONS 
       AND A TOTAL OF          7 INNER ITERATIONS.
    ------------------------------------------------

 NO OUTPUT CONTROL FOR STRESS PERIOD   17   TIME STEP    2
 
 SOLVING FOR HEAD 
                                                   Max.-Head-Change                         Max.-Flux-Residual
  Residual-Control   Outer-Iter.   Inner-Iter.     Column Row Layer    Maximum-Head-Change  Column Row Layer    Maximum-Flux-Residual          L2-NORM 
          0                 1           2             4    7     1       0.8316695521E-02       3   13    1        -0.4580468608E+00      0.1446417933E+01
          0                 2           2             4    7     1      -0.1235285256E-01       4    7    1        -0.6634096757E+00      0.1617311410E+01
          0                 3           2             4    7     1       0.8404317601E-03       4    7    1         0.4639695652E-01      0.1131132531E+00
          0                 4           1             4    7     1      -0.3344157781E-04       4    7    1        -0.1897638881E-02      0.4625961418E-02

    ------------------------------------------------
       NWT REQUIRED            4 OUTER ITERATIONS 
       AND A TOTAL OF          7 INNER ITERATIONS.
    ------------------------------------------------

 NO OUTPUT CONTROL FOR STRESS PERIOD   17   TIME STEP    3
 
 SOLVING FOR HEAD 
                                                   Max.-Head-Change                         Max.-Flux-Residual
  Residual-Control   Outer-Iter.   Inner-Iter.     Column Row Layer    Maximum-Head-Change  Column Row Layer    Maximum-Flux-Residual          L2-NORM 
          0                 1           2             4    7     1       0.8339537141E-02       4    7    1         0.4354602394E+00      0.1413837070E+01
          0                 2           2             4    7     1      -0.1235516771E-01       4    7    1        -0.6635096660E+00      0.1618986060E+01
          0                 3           2             4    7     1       0.8406790132E-03       4    7    1         0.4640912435E-01      0.1132338615E+00
          0                 4           1             4    7     1      -0.3345141593E-04       4    7    1        -0.1898136537E-02      0.4630898890E-02

    ------------------------------------------------
       NWT REQUIRED            4 OUTER ITERATIONS 
       AND A TOTAL OF          7 INNER ITERATIONS.
    ------------------------------------------------

 NO OUTPUT CONTROL FOR STRESS PERIOD   17   TIME STEP    4
 
 SOLVING FOR HEAD 
                                                   Max.-Head-Change                         Max.-Flux-Residual
  Residual-Control   Outer-Iter.   Inner-Iter.     Column Row Layer    Maximum-Head-Change  Column Row Layer    Maximum-Flux-Residual          L2-NORM 
          0                 1           2             4    7     1       0.8366524914E-02       4    7    1         0.4366445010E+00      0.1388799009E+01
          0                 2           2             4    7     1      -0.1235779415E-01       4    7    1        -0.6636280885E+00      0.1620645097E+01
          0                 3           2             4    7     1       0.8408578734E-03       4    7    1         0.4641741452E-01      0.1133511479E+00
          0                 4           1             4    7     1      -0.3345853323E-04       4    7    1        -0.1898475608E-02      0.4635795376E-02

    ------------------------------------------------
       NWT REQUIRED            4 OUTER ITERATIONS 
       AND A TOTAL OF          7 INNER ITERATIONS.
    ------------------------------------------------

 NO OUTPUT CONTROL FOR STRESS PERIOD   17   TIME STEP    5
 
 SOLVING FOR HEAD 
                                                   Max.-Head-Change                         Max.-Flux-Residual
  Residual-Control   Outer-Iter.   Inner-Iter.     Column Row Layer    Maximum-Head-Change  Column Row Layer    Maximum-Flux-Residual          L2-NORM 
          0                 1           2             4    7     1       0.8397410375E-02       4    7    1         0.4380511056E+00      0.1369973873E+01
          0                 2           2             4    7     1      -0.1236079983E-01       4    7    1        -0.6637687457E+00      0.1622280202E+01
          0                 3           2             4    7     1       0.8410625559E-03       4    7    1         0.4642726104E-01      0.1134664551E+00
          0                 4           1             4    7     1      -0.3346667747E-04       4    7    1        -0.1898878321E-02      0.4640581095E-02

    ------------------------------------------------
       NWT REQUIRED            4 OUTER ITERATIONS 
       AND A TOTAL OF          7 INNER ITERATIONS.
    ------------------------------------------------

 NO OUTPUT CONTROL FOR STRESS PERIOD   17   TIME STEP    6
 
 SOLVING FOR HEAD 
                                                   Max.-Head-Change                         Max.-Flux-Residual
  Residual-Control   Outer-Iter.   Inner-Iter.     Column Row Layer    Maximum-Head-Change  Column Row Layer    Maximum-Flux-Residual          L2-NORM 
          0                 1           2             4    7     1       0.8431693517E-02       4    7    1         0.4396524253E+00      0.1356219912E+01
          0                 2           2             4    7     1      -0.1236413607E-01       4    7    1        -0.6639288746E+00      0.1623884137E+01
          0                 3           2             4    7     1       0.8412897491E-03       4    7    1         0.4643847055E-01      0.1135794063E+00
          0                 4           1             4    7     1      -0.3347571798E-04       4    7    1        -0.1899336802E-02      0.4645216754E-02

    ------------------------------------------------
       NWT REQUIRED            4 OUTER ITERATIONS 
       AND A TOTAL OF          7 INNER ITERATIONS.
    ------------------------------------------------

 NO OUTPUT CONTROL FOR STRESS PERIOD   17   TIME STEP    7
 
 SOLVING FOR HEAD 
                                                   Max.-Head-Change                         Max.-Flux-Residual
  Residual-Control   Outer-Iter.   Inner-Iter.     Column Row Layer    Maximum-Head-Change  Column Row Layer    Maximum-Flux-Residual          L2-NORM 
          0                 1           2             4    7     1       0.8469175122E-02       4    7    1         0.4414372813E+00      0.1346577230E+01
          0                 2           2             4    7     1      -0.1236778350E-01       4    7    1        -0.6641073574E+00      0.1625451694E+01
          0                 3           2             4    7     1       0.8415381316E-03       4    7    1         0.4645096476E-01      0.1136896960E+00
          0                 4           1             4    7     1      -0.3348560123E-04       4    7    1        -0.1899847816E-02      0.4649767820E-02

    ------------------------------------------------
       NWT REQUIRED            4 OUTER ITERATIONS 
       AND A TOTAL OF          7 INNER ITERATIONS.
    ------------------------------------------------

 NO OUTPUT CONTROL FOR STRESS PERIOD   17   TIME STEP    8
 
 SOLVING FOR HEAD 
                                                   Max.-Head-Change                         Max.-Flux-Residual
  Residual-Control   Outer-Iter.   Inner-Iter.     Column Row Layer    Maximum-Head-Change  Column Row Layer    Maximum-Flux-Residual          L2-NORM 
          0                 1           2             4    7     1       0.8509395501E-02       4    7    1         0.4433805990E+00      0.1340247640E+01
          0                 2           2             4    7     1      -0.1237169740E-01       4    7    1        -0.6643016867E+00      0.1626978906E+01
          0                 3           2             4    7     1       0.8418046587E-03       4    7    1         0.4646456820E-01      0.1137970387E+00
          0                 4           1             4    7     1      -0.3349620655E-04       4    7    1        -0.1900404176E-02      0.4654177732E-02

    ------------------------------------------------
       NWT REQUIRED            4 OUTER ITERATIONS 
       AND A TOTAL OF          7 INNER ITERATIONS.
    ------------------------------------------------

 NO OUTPUT CONTROL FOR STRESS PERIOD   17   TIME STEP    9
 
 SOLVING FOR HEAD 
                                                   Max.-Head-Change                         Max.-Flux-Residual
  Residual-Control   Outer-Iter.   Inner-Iter.     Column Row Layer    Maximum-Head-Change  Column Row Layer    Maximum-Flux-Residual          L2-NORM 
          0                 1           2             4    7     1       0.8552199033E-02       4    8    1         0.4485949882E+00      0.1336588526E+01
          0                 2           2             4    7     1      -0.1237586262E-01       4    8    1        -0.6648232151E+00      0.1628465357E+01
          0                 3           2             4    7     1       0.8420882994E-03       4    8    1         0.4650079921E-01      0.1139014523E+00
          0                 4           1             4    7     1      -0.3350749262E-04       4    8    1        -0.1901887315E-02      0.4658462664E-02

    ------------------------------------------------
       NWT REQUIRED            4 OUTER ITERATIONS 
       AND A TOTAL OF          7 INNER ITERATIONS.
    ------------------------------------------------

 NO OUTPUT CONTROL FOR STRESS PERIOD   17   TIME STEP   10
 
 SOLVING FOR HEAD 
                                                   Max.-Head-Change                         Max.-Flux-Residual
  Residual-Control   Outer-Iter.   Inner-Iter.     Column Row Layer    Maximum-Head-Change  Column Row Layer    Maximum-Flux-Residual          L2-NORM 
          0                 1           2             4    8     1       0.8656634025E-02       5    8    1         0.4553247427E+00      0.1335042264E+01
          0                 2           2             4    7     1      -0.1238025159E-01       5    8    1        -0.6654962139E+00      0.1629906839E+01
          0                 3           2             4    7     1       0.8423871759E-03       5    8    1         0.4654800883E-01      0.1140026411E+00
          0                 4           1             4    7     1      -0.3351938530E-04       5    8    1        -0.1903817732E-02      0.4662627616E-02

    ------------------------------------------------
       NWT REQUIRED            4 OUTER ITERATIONS 
       AND A TOTAL OF          7 INNER ITERATIONS.
    ------------------------------------------------

 NO OUTPUT CONTROL FOR STRESS PERIOD   17   TIME STEP   11
 
 SOLVING FOR HEAD 
                                                   Max.-Head-Change                         Max.-Flux-Residual
  Residual-Control   Outer-Iter.   Inner-Iter.     Column Row Layer    Maximum-Head-Change  Column Row Layer    Maximum-Flux-Residual          L2-NORM 
          0                 1           2             4    8     1       0.8762271170E-02       5    8    1         0.4637314171E+00      0.1335172254E+01
          0                 2           2             4    7     1      -0.1238482529E-01       5    8    1        -0.6663368902E+00      0.1631304346E+01
          0                 3           2             4    7     1       0.8426986310E-03       5    8    1         0.4660685515E-01      0.1141007254E+00
          0                 4           1             4    7     1      -0.3353177810E-04       5    8    1        -0.1906224560E-02      0.4666663036E-02

    ------------------------------------------------
       NWT REQUIRED            4 OUTER ITERATIONS 
       AND A TOTAL OF          7 INNER ITERATIONS.
    ------------------------------------------------

 NO OUTPUT CONTROL FOR STRESS PERIOD   17   TIME STEP   12
 
 SOLVING FOR HEAD 
                                                   Max.-Head-Change                         Max.-Flux-Residual
  Residual-Control   Outer-Iter.   Inner-Iter.     Column Row Layer    Maximum-Head-Change  Column Row Layer    Maximum-Flux-Residual          L2-NORM 
          0                 1           2             5    8     1       0.8874471917E-02       5    8    1         0.4716484906E+00      0.1336624125E+01
          0                 2           2             4    7     1      -0.1238957385E-01       5    8    1        -0.6671286059E+00      0.1632657759E+01
          0                 3           2             4    7     1       0.8430219934E-03       5    8    1         0.4666227429E-01      0.1141956700E+00
          0                 4           1             4    7     1      -0.3354464522E-04       5    8    1        -0.1908491191E-02      0.4670572701E-02

    ------------------------------------------------
       NWT REQUIRED            4 OUTER ITERATIONS 
       AND A TOTAL OF          7 INNER ITERATIONS.
    ------------------------------------------------

 NO OUTPUT CONTROL FOR STRESS PERIOD   17   TIME STEP   13
 
 SOLVING FOR HEAD 
                                                   Max.-Head-Change                         Max.-Flux-Residual
  Residual-Control   Outer-Iter.   Inner-Iter.     Column Row Layer    Maximum-Head-Change  Column Row Layer    Maximum-Flux-Residual          L2-NORM 
          0                 1           2             5    8     1       0.9010292923E-02       5    8    1         0.4791249349E+00      0.1339109621E+01
          0                 2           2             4    7     1      -0.1239447476E-01       5    8    1        -0.6678762582E+00      0.1633967008E+01
          0                 3           2             4    7     1       0.8433557290E-03       5    8    1         0.4671460907E-01      0.1142874605E+00
          0                 4           1             4    7     1      -0.3355792473E-04       5    8    1        -0.1910631700E-02      0.4674317700E-02

    ------------------------------------------------
       NWT REQUIRED            4 OUTER ITERATIONS 
       AND A TOTAL OF          7 INNER ITERATIONS.
    ------------------------------------------------

 NO OUTPUT CONTROL FOR STRESS PERIOD   17   TIME STEP   14
 
 SOLVING FOR HEAD 
                                                   Max.-Head-Change                         Max.-Flux-Residual
  Residual-Control   Outer-Iter.   Inner-Iter.     Column Row Layer    Maximum-Head-Change  Column Row Layer    Maximum-Flux-Residual          L2-NORM 
          0                 1           2             5    8     1       0.9138439881E-02       5    8    1         0.4861749604E+00      0.1342398374E+01
          0                 2           2             4    7     1      -0.1239949454E-01       5    8    1        -0.6685812681E+00      0.1635233150E+01
          0                 3           2             4    7     1       0.8436975590E-03       5    8    1         0.4676395895E-01      0.1143764077E+00
          0                 4           1             4    7     1      -0.3357152706E-04       5    8    1        -0.1912650116E-02      0.4678294834E-02

    ------------------------------------------------
       NWT REQUIRED            4 OUTER ITERATIONS 
       AND A TOTAL OF          7 INNER ITERATIONS.
    ------------------------------------------------

 NO OUTPUT CONTROL FOR STRESS PERIOD   17   TIME STEP   15
 
 SOLVING FOR HEAD 
                                                   Max.-Head-Change                         Max.-Flux-Residual
  Residual-Control   Outer-Iter.   Inner-Iter.     Column Row Layer    Maximum-Head-Change  Column Row Layer    Maximum-Flux-Residual          L2-NORM 
          0                 1           2             5    8     1       0.9259710526E-02       5    8    1         0.4928428704E+00      0.1346301052E+01
          0                 2           2             4    7     1      -0.1240464045E-01       5    8    1        -0.6692480661E+00      0.1636456892E+01
          0                 3           2             4    7     1       0.8442618345E-03       5    8    1         0.4681063403E-01      0.1144566845E+00
          0                 4           1             4    7     1      -0.3380203703E-04       4    7    1        -0.1918219572E-02      0.4686673656E-02

    ------------------------------------------------
       NWT REQUIRED            4 OUTER ITERATIONS 
       AND A TOTAL OF          7 INNER ITERATIONS.
    ------------------------------------------------

 NO OUTPUT CONTROL FOR STRESS PERIOD   17   TIME STEP   16
 
 SOLVING FOR HEAD 
                                                   Max.-Head-Change                         Max.-Flux-Residual
  Residual-Control   Outer-Iter.   Inner-Iter.     Column Row Layer    Maximum-Head-Change  Column Row Layer    Maximum-Flux-Residual          L2-NORM 
          0                 1           2             5    8     1       0.9374270156E-02       5    8    1         0.4991384815E+00      0.1350663587E+01
          0                 2           2             4    7     1      -0.1240986735E-01       5    8    1        -0.6698776338E+00      0.1637638513E+01
          0                 3           2             4    7     1       0.8405120018E-03       5    8    1         0.4685470308E-01      0.1144447786E+00
          0                 4           1             4    7     1      -0.3344476362E-04       5    8    1        -0.1916361581E-02      0.4680784024E-02

    ------------------------------------------------
       NWT REQUIRED            4 OUTER ITERATIONS 
       AND A TOTAL OF          7 INNER ITERATIONS.
    ------------------------------------------------

 NO OUTPUT CONTROL FOR STRESS PERIOD   17   TIME STEP   17
 
 SOLVING FOR HEAD 
                                                   Max.-Head-Change                         Max.-Flux-Residual
  Residual-Control   Outer-Iter.   Inner-Iter.     Column Row Layer    Maximum-Head-Change  Column Row Layer    Maximum-Flux-Residual          L2-NORM 
          0                 1           2             5    8     1       0.9482701722E-02       5    8    1         0.5050939259E+00      0.1355313688E+01
          0                 2           2             4    7     1      -0.1242129396E-01       5    8    1        -0.6704731844E+00      0.1638771176E+01
          0                 3           2             4    7     1       0.8451830459E-03       5    8    1         0.4689639096E-01      0.1146241822E+00
          0                 4           1             4    7     1      -0.3363062942E-04       5    8    1        -0.1918066611E-02      0.4688118839E-02

    ------------------------------------------------
       NWT REQUIRED            4 OUTER ITERATIONS 
       AND A TOTAL OF          7 INNER ITERATIONS.
    ------------------------------------------------

 NO OUTPUT CONTROL FOR STRESS PERIOD   17   TIME STEP   18
 
 SOLVING FOR HEAD 
                                                   Max.-Head-Change                         Max.-Flux-Residual
  Residual-Control   Outer-Iter.   Inner-Iter.     Column Row Layer    Maximum-Head-Change  Column Row Layer    Maximum-Flux-Residual          L2-NORM 
          0                 1           2             5    8     1       0.9585403154E-02       5    8    1         0.5107316804E+00      0.1360221524E+01
          0                 2           2             4    7     1      -0.1242630229E-01       5    8    1        -0.6710369657E+00      0.1639865708E+01
          0                 3           2             4    7     1       0.8455240984E-03       5    8    1         0.4693585502E-01      0.1147008484E+00
          0                 4           1             4    7     1      -0.3364419986E-04       5    8    1        -0.1919680685E-02      0.4691256110E-02

    ------------------------------------------------
       NWT REQUIRED            4 OUTER ITERATIONS 
       AND A TOTAL OF          7 INNER ITERATIONS.
    ------------------------------------------------

 NO OUTPUT CONTROL FOR STRESS PERIOD   17   TIME STEP   19
 
 SOLVING FOR HEAD 
                                                   Max.-Head-Change                         Max.-Flux-Residual
  Residual-Control   Outer-Iter.   Inner-Iter.     Column Row Layer    Maximum-Head-Change  Column Row Layer    Maximum-Flux-Residual          L2-NORM 
          0                 1           2             5    8     1       0.9682599886E-02       5    8    1         0.5160645057E+00      0.1365289355E+01
          0                 2           2             4    7     1      -0.1243137545E-01       5    8    1        -0.6715702537E+00      0.1640921858E+01
          0                 3           2             4    7     1       0.8458695651E-03       5    8    1         0.4697318461E-01      0.1147748310E+00
          0                 4           1             4    7     1      -0.3365794644E-04       5    8    1        -0.1921207473E-02      0.4694286348E-02

    ------------------------------------------------
       NWT REQUIRED            4 OUTER ITERATIONS 
       AND A TOTAL OF          7 INNER ITERATIONS.
    ------------------------------------------------

 NO OUTPUT CONTROL FOR STRESS PERIOD   17   TIME STEP   20
 
 SOLVING FOR HEAD 
                                                   Max.-Head-Change                         Max.-Flux-Residual
  Residual-Control   Outer-Iter.   Inner-Iter.     Column Row Layer    Maximum-Head-Change  Column Row Layer    Maximum-Flux-Residual          L2-NORM 
          0                 1           2             5    8     1       0.9774783173E-02       5    8    1         0.5211198065E+00      0.1370481145E+01
          0                 2           2             4    7     1      -0.1243651249E-01       5    8    1        -0.6720757889E+00      0.1641943122E+01
          0                 3           2             4    7     1       0.8462193819E-03       5    8    1         0.4700857156E-01      0.1148463361E+00
          0                 4           1             4    7     1      -0.3367186548E-04       5    8    1        -0.1922654805E-02      0.4697209930E-02

    ------------------------------------------------
       NWT REQUIRED            4 OUTER ITERATIONS 
       AND A TOTAL OF          7 INNER ITERATIONS.
    ------------------------------------------------

 NO OUTPUT CONTROL FOR STRESS PERIOD   17   TIME STEP   21
 
 SOLVING FOR HEAD 
                                                   Max.-Head-Change                         Max.-Flux-Residual
  Residual-Control   Outer-Iter.   Inner-Iter.     Column Row Layer    Maximum-Head-Change  Column Row Layer    Maximum-Flux-Residual          L2-NORM 
          0                 1           2             5    8     1       0.9862130256E-02       5    8    1         0.5259072816E+00      0.1375722532E+01
          0                 2           2             4    7     1      -0.1244169951E-01       5    8    1        -0.6725545413E+00      0.1642928109E+01
          0                 3           2             4    7     1       0.8465726014E-03       5    8    1         0.4704208371E-01      0.1149152910E+00
          0                 4           1             4    7     1      -0.3368592072E-04       5    8    1        -0.1924025470E-02      0.4700024044E-02

    ------------------------------------------------
       NWT REQUIRED            4 OUTER ITERATIONS 
       AND A TOTAL OF          7 INNER ITERATIONS.
    ------------------------------------------------

 NO OUTPUT CONTROL FOR STRESS PERIOD   17   TIME STEP   22
 
 SOLVING FOR HEAD 
                                                   Max.-Head-Change                         Max.-Flux-Residual
  Residual-Control   Outer-Iter.   Inner-Iter.     Column Row Layer    Maximum-Head-Change  Column Row Layer    Maximum-Flux-Residual          L2-NORM 
          0                 1           2             5    8     1       0.9944941716E-02       5    8    1         0.5304440066E+00      0.1380991030E+01
          0                 2           2             4    7     1      -0.1244692384E-01       5    8    1        -0.6730082183E+00      0.1643880469E+01
          0                 3           2             4    7     1       0.8469283607E-03       5    8    1         0.4707384064E-01      0.1149820114E+00
          0                 4           1             4    7     1      -0.3370007669E-04       5    8    1        -0.1925324318E-02      0.4702764115E-02

    ------------------------------------------------
       NWT REQUIRED            4 OUTER ITERATIONS 
       AND A TOTAL OF          7 INNER ITERATIONS.
    ------------------------------------------------

 NO OUTPUT CONTROL FOR STRESS PERIOD   17   TIME STEP   23
 
 SOLVING FOR HEAD 
                                                   Max.-Head-Change                         Max.-Flux-Residual
  Residual-Control   Outer-Iter.   Inner-Iter.     Column Row Layer    Maximum-Head-Change  Column Row Layer    Maximum-Flux-Residual          L2-NORM 
          0                 1           2             5    8     1       0.1002364983E-01       5    8    1         0.5347534522E+00      0.1386249256E+01
          0                 2           2             4    7     1      -0.1245216064E-01       5    8    1        -0.6734391672E+00      0.1644799948E+01
          0                 3           2             4    7     1       0.8472849701E-03       5    8    1         0.4710400663E-01      0.1150463970E+00
          0                 4           1             4    7     1      -0.3371426640E-04       5    8    1        -0.1926558103E-02      0.4705402245E-02

    ------------------------------------------------
       NWT REQUIRED            4 OUTER ITERATIONS 
       AND A TOTAL OF          7 INNER ITERATIONS.
    ------------------------------------------------

 NO OUTPUT CONTROL FOR STRESS PERIOD   17   TIME STEP   24
 
 SOLVING FOR HEAD 
                                                   Max.-Head-Change                         Max.-Flux-Residual
  Residual-Control   Outer-Iter.   Inner-Iter.     Column Row Layer    Maximum-Head-Change  Column Row Layer    Maximum-Flux-Residual          L2-NORM 
          0                 1           2             5    8     1       0.1009835663E-01       5    8    1         0.5388422591E+00      0.1391475227E+01
          0                 2           2             4    7     1      -0.1245741278E-01       5    8    1        -0.6738480519E+00      0.1645688168E+01
          0                 3           2             4    7     1       0.8476426231E-03       5    8    1         0.4713262815E-01      0.1151085818E+00
          0                 4           1             4    7     1      -0.3372849778E-04       5    8    1        -0.1927728740E-02      0.4707945919E-02

    ------------------------------------------------
       NWT REQUIRED            4 OUTER ITERATIONS 
       AND A TOTAL OF          7 INNER ITERATIONS.
    ------------------------------------------------

 NO OUTPUT CONTROL FOR STRESS PERIOD   17   TIME STEP   25
 
 SOLVING FOR HEAD 
                                                   Max.-Head-Change                         Max.-Flux-Residual
  Residual-Control   Outer-Iter.   Inner-Iter.     Column Row Layer    Maximum-Head-Change  Column Row Layer    Maximum-Flux-Residual          L2-NORM 
          0                 1           2             5    8     1       0.1016916740E-01       5    8    1         0.5427157185E+00      0.1396642278E+01
          0                 2           2             4    7     1      -0.1246267026E-01       5    8    1        -0.6742354016E+00      0.1646545606E+01
          0                 3           2             4    7     1       0.8480006393E-03       5    8    1         0.4715974224E-01      0.1151686116E+00
          0                 4           1             4    7     1      -0.3374274379E-04       5    8    1        -0.1928837717E-02      0.4710401290E-02

    ------------------------------------------------
       NWT REQUIRED            4 OUTER ITERATIONS 
       AND A TOTAL OF          7 INNER ITERATIONS.
    ------------------------------------------------

 NO OUTPUT CONTROL FOR STRESS PERIOD   17   TIME STEP   26
 
 SOLVING FOR HEAD 
                                                   Max.-Head-Change                         Max.-Flux-Residual
  Residual-Control   Outer-Iter.   Inner-Iter.     Column Row Layer    Maximum-Head-Change  Column Row Layer    Maximum-Flux-Residual          L2-NORM 
          0                 1           2             5    8     1       0.1023661018E-01       5    8    1         0.5464029457E+00      0.1401753009E+01
          0                 2           2             4    7     1      -0.1246792452E-01       5    8    1        -0.6746041279E+00      0.1647375494E+01
          0                 3           2             4    7     1       0.8483584369E-03       5    8    1         0.4718555273E-01      0.1152267159E+00
          0                 4           1             4    7     1      -0.3375698070E-04       5    8    1        -0.1929893367E-02      0.4712777857E-02

    ------------------------------------------------
       NWT REQUIRED            4 OUTER ITERATIONS 
       AND A TOTAL OF          7 INNER ITERATIONS.
    ------------------------------------------------

 NO OUTPUT CONTROL FOR STRESS PERIOD   17   TIME STEP   27
 
 SOLVING FOR HEAD 
                                                   Max.-Head-Change                         Max.-Flux-Residual
  Residual-Control   Outer-Iter.   Inner-Iter.     Column Row Layer    Maximum-Head-Change  Column Row Layer    Maximum-Flux-Residual          L2-NORM 
          0                 1           2             5    8     1       0.1030074376E-01       5    8    1         0.5499076619E+00      0.1406790850E+01
          0                 2           2             4    7     1      -0.1247316731E-01       5    8    1        -0.6749546029E+00      0.1648177978E+01
          0                 3           2             4    7     1       0.8487154523E-03       5    8    1         0.4721008565E-01      0.1152828975E+00
          0                 4           1             4    7     1      -0.3377118664E-04       5    8    1        -0.1930896766E-02      0.4715072533E-02

    ------------------------------------------------
       NWT REQUIRED            4 OUTER ITERATIONS 
       AND A TOTAL OF          7 INNER ITERATIONS.
    ------------------------------------------------

 NO OUTPUT CONTROL FOR STRESS PERIOD   17   TIME STEP   28
 
 SOLVING FOR HEAD 
                                                   Max.-Head-Change                         Max.-Flux-Residual
  Residual-Control   Outer-Iter.   Inner-Iter.     Column Row Layer    Maximum-Head-Change  Column Row Layer    Maximum-Flux-Residual          L2-NORM 
          0                 1           2             5    8     1       0.1036176558E-01       5    8    1         0.5532408007E+00      0.1411736645E+01
          0                 2           2             4    7     1      -0.1247837805E-01       5    8    1        -0.6752879199E+00      0.1648953268E+01
          0                 3           2             4    7     1       0.8490702856E-03       5    8    1         0.4723341752E-01      0.1153371800E+00
          0                 4           1             4    7     1      -0.3378530588E-04       5    8    1        -0.1931851033E-02      0.4717296318E-02

    ------------------------------------------------
       NWT REQUIRED            4 OUTER ITERATIONS 
       AND A TOTAL OF          7 INNER ITERATIONS.
    ------------------------------------------------

 NO OUTPUT CONTROL FOR STRESS PERIOD   17   TIME STEP   29
 
 SOLVING FOR HEAD 
                                                   Max.-Head-Change                         Max.-Flux-Residual
  Residual-Control   Outer-Iter.   Inner-Iter.     Column Row Layer    Maximum-Head-Change  Column Row Layer    Maximum-Flux-Residual          L2-NORM 
          0                 1           2             5    8     1       0.1041700492E-01       5    8    1         0.5564125988E+00      0.1455288236E+01
          0                 2           2             4    7     1      -0.1248355864E-01       5    8    1        -0.6756050996E+00      0.1650013321E+01
          0                 3           2             4    7     1       0.8494230655E-03       5    8    1         0.4725562029E-01      0.1154091137E+00
          0                 4           1             4    7     1      -0.3379934293E-04       5    8    1        -0.1932759130E-02      0.4720080334E-02

    ------------------------------------------------
       NWT REQUIRED            4 OUTER ITERATIONS 
       AND A TOTAL OF          7 INNER ITERATIONS.
    ------------------------------------------------

 NO OUTPUT CONTROL FOR STRESS PERIOD   17   TIME STEP   30



 STREAM LISTING     PERIOD     17   STEP       30

 LAYER ROW COL. STREAM  RCH.  FLOW INTO     FLOW TO   FLOW OUT OF   OVRLND.     DIRECT     STREAM       STREAM     STREAM     STREAM   STREAMBED  STREAMBED
                SEG.NO.  NO.  STRM. RCH.    AQUIFER    STRM. RCH.    RUNOFF     PRECIP       ET          HEAD       DEPTH      WIDTH   CONDCTNC.   GRADIENT

   1    1    1     1     1    6.5908E+01  3.9227E-01   6.5516E+01  0.000E+00  0.000E+00  0.000E+00  1.09464E+03  1.596E+00  1.897E+01  8.536E-02  1.532E+00
   1    2    2     1     2    6.5516E+01  6.0756E-01   6.4909E+01  0.000E+00  0.000E+00  0.000E+00  1.08965E+03  1.590E+00  1.891E+01  1.324E-01  1.530E+00
   1    3    3     1     3    6.4909E+01  5.1821E-01   6.4390E+01  0.000E+00  0.000E+00  0.000E+00  1.08400E+03  1.583E+00  1.884E+01  1.131E-01  1.528E+00
   1    3    4     1     4    6.4390E+01  4.7725E-01   6.3913E+01  0.000E+00  0.000E+00  0.000E+00  1.07899E+03  1.577E+00  1.879E+01  1.043E-01  1.526E+00
   1    4    5     2     1    6.1913E+01  3.9598E-01   6.1517E+01  0.000E+00  0.000E+00  0.000E+00  1.07401E+03  2.077E+00  1.200E+01  7.800E-02  1.692E+00
   1    5    6     2     2    6.1517E+01  3.0418E-01   6.1213E+01  0.000E+00  0.000E+00  0.000E+00  1.06858E+03  2.070E+00  1.200E+01  6.000E-02  1.690E+00
   1    6    6     2     3    6.1213E+01  3.0381E-01   6.0909E+01  0.000E+00  0.000E+00  0.000E+00  1.06386E+03  2.063E+00  1.200E+01  6.000E-02  1.688E+00
   1    7    6     2     4    6.0909E+01  3.0344E-01   6.0606E+01  0.000E+00  0.000E+00  0.000E+00  1.05913E+03  2.057E+00  1.200E+01  6.000E-02  1.686E+00
   1    8    6     2     5    6.0606E+01  3.0307E-01   6.0303E+01  0.000E+00  0.000E+00  0.000E+00  1.05441E+03  2.051E+00  1.200E+01  6.000E-02  1.684E+00
   1    3    5     3     1    2.0000E+00  2.8252E-01   1.7175E+00  0.000E+00  0.000E+00  0.000E+00  1.07555E+03  1.909E+00  9.636E+00  7.227E-02  1.955E+00
   1    3    6     3     2    1.7175E+00  2.4905E-01   1.4684E+00  0.000E+00  0.000E+00  0.000E+00  1.07264E+03  1.727E+00  8.909E+00  6.682E-02  1.864E+00
   1    3    7     3     3    1.4684E+00  1.9718E-01   1.2712E+00  0.000E+00  0.000E+00  0.000E+00  1.06987E+03  1.555E+00  8.218E+00  5.547E-02  1.777E+00
   1    4    8     3     4    1.2712E+00  2.2567E-01   1.0456E+00  0.000E+00  0.000E+00  0.000E+00  1.06682E+03  1.364E+00  7.455E+00  6.709E-02  1.682E+00
   1    5    8     3     5    1.0456E+00  1.5790E-01   8.8768E-01  0.000E+00  0.000E+00  0.000E+00  1.06362E+03  1.164E+00  6.655E+00  4.991E-02  1.582E+00
   1    6    8     3     6    8.8768E-01  5.5980E-02   8.3170E-01  0.000E+00  0.000E+00  0.000E+00  1.06158E+03  1.036E+00  6.145E+00  1.844E-02  1.518E+00
   1    5   10     4     1    1.0000E+01  9.0919E-02   9.9091E+00  0.000E+00  0.000E+00  0.000E+00  1.07836E+03  6.368E-01  1.000E+01  2.500E-02  1.212E+00
   1    5    9     4     2    9.9091E+00  1.8158E-01   9.7275E+00  0.000E+00  0.000E+00  0.000E+00  1.07154E+03  6.315E-01  1.000E+01  5.000E-02  1.211E+00
   1    6    8     4     3    9.7275E+00  1.2689E-01   9.6006E+00  0.000E+00  0.000E+00  0.000E+00  1.06381E+03  6.256E-01  1.000E+01  3.500E-02  1.209E+00
   1    6    8     5     1    1.0432E+01  2.2686E-01   1.0205E+01  0.000E+00  0.000E+00  0.000E+00  1.05868E+03  6.790E-01  1.542E+01  6.166E-02  1.226E+00
   1    7    7     5     2    1.0205E+01  2.7894E-01   9.9265E+00  0.000E+00  0.000E+00  0.000E+00  1.05417E+03  6.732E-01  1.519E+01  7.594E-02  1.224E+00
   1    8    7     5     3    9.9265E+00  1.9221E-01   9.7343E+00  0.000E+00  0.000E+00  0.000E+00  1.04992E+03  6.676E-01  1.497E+01  5.241E-02  1.223E+00
   1    8    6     5     4    9.7343E+00  1.3577E-01   9.5985E+00  0.000E+00  0.000E+00  0.000E+00  1.04691E+03  6.637E-01  1.482E+01  3.706E-02  1.221E+00
   1    9    6     6     1    6.9901E+01  3.1559E-01   6.9586E+01  0.000E+00  0.000E+00  0.000E+00  1.04499E+03  2.260E+00  1.200E+01  6.000E-02  1.753E+00
   1   10    7     6     2    6.9586E+01  3.1522E-01   6.9270E+01  0.000E+00  0.000E+00  0.000E+00  1.04044E+03  2.254E+00  1.200E+01  6.000E-02  1.751E+00
   1   11    7     6     3    6.9270E+01  3.1485E-01   6.8955E+01  0.000E+00  0.000E+00  0.000E+00  1.03588E+03  2.248E+00  1.200E+01  6.000E-02  1.749E+00
   1   12    7     6     4    6.8955E+01  3.1448E-01   6.8641E+01  0.000E+00  0.000E+00  0.000E+00  1.03133E+03  2.241E+00  1.200E+01  6.000E-02  1.747E+00
   1   13    7     6     5    6.8641E+01  2.4786E-02   6.8616E+01  0.000E+00  0.000E+00  0.000E+00  1.02815E+03  2.238E+00  1.200E+01  2.400E-02  3.442E-01
   1   14    9     7     1    1.5000E+02  1.3305E+00   1.4867E+02  0.000E+00  0.000E+00  0.000E+00  1.03987E+03  2.288E+00  5.529E+01  5.593E-01  7.929E-01
   1   13    8     7     2    1.4867E+02  1.8208E+00   1.4685E+02  0.000E+00  0.000E+00  0.000E+00  1.03478E+03  2.279E+00  5.526E+01  6.148E-01  9.872E-01
   1   13    7     7     3    1.4685E+02  1.4384E+00   1.4541E+02  0.000E+00  0.000E+00  0.000E+00  1.02969E+03  2.271E+00  5.522E+01  5.585E-01  8.585E-01
   1   13    6     8     1    2.1403E+02  1.0642E+00   2.1296E+02  0.000E+00  0.000E+00  0.000E+00  1.02509E+03  3.215E+00  4.662E+01  4.751E-01  7.466E-01
   1   13    5     8     2    2.1296E+02  2.5230E-01   2.1271E+02  0.000E+00  0.000E+00  0.000E+00  1.01884E+03  3.212E+00  4.657E+01  4.746E-01  1.772E-01
   1   13    4     8     3    2.1271E+02 -2.3278E+00   2.1504E+02  0.000E+00  0.000E+00  0.000E+00  1.01259E+03  3.218E+00  4.666E+01  4.754E+00 -1.632E-01
   1   13    3     8     4    2.1504E+02 -3.6183E+00   2.1866E+02  0.000E+00  0.000E+00  0.000E+00  1.00636E+03  3.234E+00  4.690E+01  4.779E+00 -2.524E-01
   1   13    2     8     5    2.1866E+02 -2.7132E+00   2.2137E+02  0.000E+00  0.000E+00  0.000E+00  1.00013E+03  3.252E+00  4.715E+01  4.805E+00 -1.882E-01
   1   13    1     8     6    2.2137E+02 -2.0834E+00   2.2345E+02  0.000E+00  0.000E+00  0.000E+00  9.95140E+02  3.265E+00  4.735E+01  2.895E+00 -2.399E-01





UNSATURATED ZONE PACKAGE VOLUMETRIC BUDGET FOR  TIME STEP    30 STRESS PERIOD   17
  ------------------------------------------------------------------------------



     CUMULATIVE VOLUMES      L**3       RATES FOR THIS TIME STEP      L**3/T
     ------------------                 ------------------------

           IN:                                      IN:
           ---                                      ---
        INFILTRATION =   480567694.7629          INFILTRATION =           4.5675

          OUT:                                     OUT:
          ----                                     ----
              UZF ET =   442561294.6542                UZF ET =           4.5675
        UZF RECHARGE =    37934422.1554          UZF RECHARGE =       0.0000E+00

            IN - OUT =       71977.9533              IN - OUT =       0.0000E+00

          STORAGE:                                 STORAGE:
          --------                                 --------
      STORAGE CHANGE =       71978.5014        STORAGE CHANGE =      -3.7909E-12

 PERCENT DISCREPANCY IS DIFFERENCE BETWEEN IN-OUT MINUS CHANGE IN STORAGE
 DIVIDED BY THE AVERAGE OF IN AND OUT TIMES 100

 PERCENT DISCREPANCY =           0.00     PERCENT DISCREPANCY =           0.00






1
  VOLUMETRIC BUDGET FOR AGRICULTURAL FIELDS AT  END OF TIME STEP   30, STRESS PERIOD  17
  ------------------------------------------------------------------------------

     CUMULATIVE VOLUMES      L**3       RATES FOR THIS TIME STEP      L**3/T
     ------------------                 ------------------------

           IN:                                      IN:
           ---                                      ---
               AG WELLS  =   444831040.0000                 AG WELLS  =           3.7200
      DIVERSION SEGMENTS =           0.0000        DIVERSION SEGMENTS =           0.0000
       IRRIGATION PONDS  =           0.0000         IRRIGATION PONDS  =           0.0000
           GW IRRIGATION =           0.0000             GW IRRIGATION =           0.0000
           SW IRRIGATION =           0.0000             SW IRRIGATION =           0.0000
        SYSTEM LOSSES GW =           0.0000          SYSTEM LOSSES GW =           0.0000
        SYSTEM LOSSES SW =           0.0000          SYSTEM LOSSES SW =           0.0000

                TOTAL IN =   444831040.0000                  TOTAL IN =           3.7200

          OUT:                                     OUT:
          ----                                     ----
               AG WELLS  =           0.0000                 AG WELLS  =           0.0000
      DIVERSION SEGMENTS =           0.0000        DIVERSION SEGMENTS =           0.0000
       IRRIGATION PONDS  =           0.0000         IRRIGATION PONDS  =           0.0000
           GW IRRIGATION =   444831040.0000             GW IRRIGATION =           3.7200
           SW IRRIGATION =           0.0000             SW IRRIGATION =           0.0000
        SYSTEM LOSSES GW =           0.0000          SYSTEM LOSSES GW =           0.0000
        SYSTEM LOSSES SW =           0.0000          SYSTEM LOSSES SW =           0.0000

               TOTAL OUT =   444831040.0000                 TOTAL OUT =           3.7200

                IN - OUT =           0.0000                  IN - OUT =           0.0000

     PERCENT DISCREPANCY =           0.00         PERCENT DISCREPANCY =           0.00



1
  VOLUMETRIC BUDGET FOR ENTIRE MODEL AT END OF TIME STEP   30, STRESS PERIOD  17
  ------------------------------------------------------------------------------

     CUMULATIVE VOLUMES      L**3       RATES FOR THIS TIME STEP      L**3/T
     ------------------                 ------------------------

           IN:                                      IN:
           ---                                      ---
             STORAGE     =   607189120.0000               STORAGE     =           3.4420
       CONSTANT HEAD     =           0.0000         CONSTANT HEAD     =           0.0000
     HEAD DEP BOUNDS     =    12034748.0000       HEAD DEP BOUNDS     =           0.2854
      STREAM LEAKAGE     =   527471072.0000        STREAM LEAKAGE     =          13.1983
        UZF RECHARGE     =    37934444.0000          UZF RECHARGE     =           0.0000
               GW ET     =           0.0000                 GW ET     =           0.0000
     SURFACE LEAKAGE     =           0.0000       SURFACE LEAKAGE     =           0.0000
           AG WELLS      =           0.0000             AG WELLS      =           0.0000

                TOTAL IN =  1184629376.0000                  TOTAL IN =          16.9257

          OUT:                                     OUT:
          ----                                     ----
             STORAGE     =   278461728.0000               STORAGE     =           1.9178
       CONSTANT HEAD     =           0.0000         CONSTANT HEAD     =           0.0000
     HEAD DEP BOUNDS     =    12416517.0000       HEAD DEP BOUNDS     =           0.2987
      STREAM LEAKAGE     =   434372736.0000        STREAM LEAKAGE     =          10.7427
        UZF RECHARGE     =           0.0000          UZF RECHARGE     =           0.0000
               GW ET     =    14553217.0000                 GW ET     =           0.2464
     SURFACE LEAKAGE     =           0.0000       SURFACE LEAKAGE     =           0.0000
           AG WELLS      =   444831040.0000             AG WELLS      =           3.7200

               TOTAL OUT =  1184635136.0000                 TOTAL OUT =          16.9256

                IN - OUT =       -5760.0000                  IN - OUT =       1.4877E-04

     PERCENT DISCREPANCY =          -0.00         PERCENT DISCREPANCY =           0.00






         TIME SUMMARY AT END OF TIME STEP   30 IN STRESS PERIOD   17
                    SECONDS     MINUTES      HOURS       DAYS        YEARS
                    -----------------------------------------------------------
   TIME STEP LENGTH  87667.      1461.1      24.352      1.0147     2.77799E-03
 STRESS PERIOD TIME 2.63000E+06  43833.      730.56      30.440     8.33397E-02
         TOTAL TIME 4.21664E+07 7.02774E+05  11713.      488.04      1.3362    
1
1
                            STRESS PERIOD NO.   18, LENGTH =   2630000.    
                            -----------------------------------------------

                              NUMBER OF TIME STEPS =    30

                               MULTIPLIER FOR DELT =     1.000

                            INITIAL TIME STEP SIZE =   87666.66    

 REUSING NON-PARAMETER GHB CELLS FROM LAST STRESS PERIOD

      2 GHB CELLS

 REUSING STREAM SEGMENT DATA FROM LAST STRESS PERIOD



            AREAL INFILTRATION RATE
 READING ON UNIT   19 WITH FORMAT: (FREE)              

            1           2           3           4           5           6           7           8           9          10
 ........................................................................................................................
   1   1.0000E-10  2.0000E-10   0.000       0.000       0.000       0.000       0.000       0.000       0.000       0.000    
   2   2.0000E-10  1.0000E-10  2.0000E-10   0.000       0.000      8.0000E-10  8.0000E-10  5.0000E-10   0.000       0.000    
   3    0.000      5.0000E-10  1.0000E-10  1.0000E-10  8.0000E-10  8.0000E-10  5.0000E-10  5.0000E-10   0.000       0.000    
   4   8.0000E-10  5.0000E-10  1.0000E-10  1.0000E-10  1.0000E-10  1.0000E-10  1.0000E-10  1.0000E-10  2.0000E-10   0.000    
   5   8.0000E-10  5.0000E-10  1.0000E-10  1.0000E-10  1.0000E-10  1.0000E-10  1.0000E-10  1.0000E-10  1.0000E-10  1.0000E-10
   6   8.0000E-10  5.0000E-10  5.0000E-10  2.0000E-10  2.0000E-10  1.0000E-10  1.0000E-10  1.0000E-10  1.0000E-10  5.0000E-10
   7   8.0000E-10  5.0000E-10  5.0000E-10  2.0000E-10  2.0000E-10  1.0000E-10  1.0000E-10  2.0000E-10  2.0000E-10   0.000    
   8    0.000      5.0000E-10  5.0000E-10  2.0000E-10  2.0000E-10  1.0000E-10  1.0000E-10  2.0000E-10  5.0000E-10   0.000    
   9    0.000      5.0000E-10  5.0000E-10  2.0000E-10  2.0000E-10  1.0000E-10  1.0000E-10  2.0000E-10  5.0000E-10   0.000    
  10    0.000      5.0000E-10  5.0000E-10  2.0000E-10  2.0000E-10  1.0000E-10  1.0000E-10  2.0000E-10  5.0000E-10  8.0000E-10
  11    0.000      1.0000E-10  1.0000E-10  1.0000E-10  1.0000E-10  1.0000E-10  1.0000E-10  2.0000E-10  5.0000E-10   0.000    
  12   1.0000E-10  1.0000E-10  1.0000E-10  1.0000E-10  1.0000E-10  1.0000E-10  1.0000E-10  1.0000E-10  2.0000E-10   0.000    
  13   1.0000E-10  1.0000E-10  2.0000E-10  2.0000E-10  2.0000E-10  2.0000E-10  2.0000E-10  1.0000E-10  1.0000E-10   0.000    
  14    0.000      2.0000E-10  5.0000E-10  5.0000E-10  5.0000E-10  5.0000E-10  5.0000E-10  2.0000E-10  1.0000E-10   0.000    
  15    0.000       0.000      8.0000E-10  8.0000E-10  8.0000E-10  8.0000E-10   0.000       0.000       0.000       0.000    

                  ET RATE =  5.000000E-08

 USING ET EXTINCTION DEPTH FROM PREVIOUS STRESS PERIOD. CURRENT PERIOD IS:      18

 USING EXTINCTION WATER CONTENT FROM PREVIOUS STRESS PERIOD. CURRENT PERIOD IS:      18

 USING AIR ENTRY PRESSURE FROM PREVIOUS STRESS PERIOD. CURRENT PERIOD IS:      18

 USING ROOT PRESSURE HEAD FROM PREVIOUS STRESS PERIOD. CURRENT PERIOD IS:      18

 USING ROOT ACTIVITY FROM PREVIOUS STRESS PERIOD. CURRENT PERIOD IS:      18

 PROCESSING AG STRESS PERIOD DATA

 READING AG STRESS PERIOD DATA

 READING IRRIGATION WELL

 NO IRRPOND OR REUSING IRRPOND DATA FROM LAST STRESS PERIOD

 END PROCESSING AG STRESS PERIOD DATA OPTIONS
 
 SOLVING FOR HEAD 
                                                   Max.-Head-Change                         Max.-Flux-Residual
  Residual-Control   Outer-Iter.   Inner-Iter.     Column Row Layer    Maximum-Head-Change  Column Row Layer    Maximum-Flux-Residual          L2-NORM 
          0                 1           2             4    7     1      -0.1429382150E-01       4    7    1        -0.7484849688E+00      0.1922498538E+01
          0                 2           2             4    7     1       0.1390397812E-02       4    7    1         0.7484842188E-01      0.1917421390E+00
          0                 3           1             4    7     1      -0.9468094816E-04       4    7    1        -0.5239392506E-02      0.1337593296E-01

    ------------------------------------------------
       NWT REQUIRED            3 OUTER ITERATIONS 
       AND A TOTAL OF          5 INNER ITERATIONS.
    ------------------------------------------------

 NO OUTPUT CONTROL FOR STRESS PERIOD   18   TIME STEP    1
 
 SOLVING FOR HEAD 
                                                   Max.-Head-Change                         Max.-Flux-Residual
  Residual-Control   Outer-Iter.   Inner-Iter.     Column Row Layer    Maximum-Head-Change  Column Row Layer    Maximum-Flux-Residual          L2-NORM 
          0                 1           2             5    8     1       0.1084899285E-01       5    8    1         0.5801982022E+00      0.1531166111E+01
          0                 2           2             4    7     1      -0.2405099227E-01       5    8    1        -0.1297983744E+01      0.3172564950E+01
          0                 3           2             4    7     1       0.1637321840E-02       5    8    1         0.9083238267E-01      0.2220140409E+00
          0                 4           1             4    7     1      -0.6515058482E-04       5    8    1        -0.3715055395E-02      0.9080258981E-02

    ------------------------------------------------
       NWT REQUIRED            4 OUTER ITERATIONS 
       AND A TOTAL OF          7 INNER ITERATIONS.
    ------------------------------------------------

 NO OUTPUT CONTROL FOR STRESS PERIOD   18   TIME STEP    2
 
 SOLVING FOR HEAD 
                                                   Max.-Head-Change                         Max.-Flux-Residual
  Residual-Control   Outer-Iter.   Inner-Iter.     Column Row Layer    Maximum-Head-Change  Column Row Layer    Maximum-Flux-Residual          L2-NORM 
          0                 1           2             5    8     1       0.1120348243E-01       5    8    1         0.5996765118E+00      0.1539402020E+01
          0                 2           2             4    7     1      -0.2415602143E-01       5    8    1        -0.1304942682E+01      0.3188145387E+01
          0                 3           2             4    7     1       0.1644473935E-02       5    8    1         0.9131949394E-01      0.2231050978E+00
          0                 4           1             4    7     1      -0.6543517346E-04       5    8    1        -0.3734978352E-02      0.9124911902E-02

    ------------------------------------------------
       NWT REQUIRED            4 OUTER ITERATIONS 
       AND A TOTAL OF          7 INNER ITERATIONS.
    ------------------------------------------------

 NO OUTPUT CONTROL FOR STRESS PERIOD   18   TIME STEP    3
 
 SOLVING FOR HEAD 
                                                   Max.-Head-Change                         Max.-Flux-Residual
  Residual-Control   Outer-Iter.   Inner-Iter.     Column Row Layer    Maximum-Head-Change  Column Row Layer    Maximum-Flux-Residual          L2-NORM 
          0                 1           2             5    8     1       0.1154151010E-01       5    8    1         0.6182353865E+00      0.1552181105E+01
          0                 2           2             4    7     1      -0.2416811501E-01       5    8    1        -0.1306798593E+01      0.3191381272E+01
          0                 3           2             4    7     1       0.1645308552E-02       5    8    1         0.9144940319E-01      0.2233296601E+00
          0                 4           1             4    8     1      -0.6576312802E-04       4    8    1        -0.3775959696E-02      0.9153695114E-02

    ------------------------------------------------
       NWT REQUIRED            4 OUTER ITERATIONS 
       AND A TOTAL OF          7 INNER ITERATIONS.
    ------------------------------------------------

 NO OUTPUT CONTROL FOR STRESS PERIOD   18   TIME STEP    4
 
 SOLVING FOR HEAD 
                                                   Max.-Head-Change                         Max.-Flux-Residual
  Residual-Control   Outer-Iter.   Inner-Iter.     Column Row Layer    Maximum-Head-Change  Column Row Layer    Maximum-Flux-Residual          L2-NORM 
          0                 1           2             5    8     1       0.1186184333E-01       5    8    1         0.6358083791E+00      0.1568160830E+01
          0                 2           2             4    7     1      -0.2418054937E-01       5    8    1        -0.1308555915E+01      0.3194521218E+01
          0                 3           2             4    7     1       0.1646045757E-02       5    8    1         0.9157241149E-01      0.2233674642E+00
          0                 4           1             4    7     1      -0.6549771768E-04       5    8    1        -0.3745322737E-02      0.9135644738E-02

    ------------------------------------------------
       NWT REQUIRED            4 OUTER ITERATIONS 
       AND A TOTAL OF          7 INNER ITERATIONS.
    ------------------------------------------------

 NO OUTPUT CONTROL FOR STRESS PERIOD   18   TIME STEP    5
 
 SOLVING FOR HEAD 
                                                   Max.-Head-Change                         Max.-Flux-Residual
  Residual-Control   Outer-Iter.   Inner-Iter.     Column Row Layer    Maximum-Head-Change  Column Row Layer    Maximum-Flux-Residual          L2-NORM 
          0                 1           2             5    8     1       0.1216528350E-01       5    8    1         0.6524424826E+00      0.1586305764E+01
          0                 2           2             4    7     1      -0.2419344658E-01       5    8    1        -0.1310219347E+01      0.3197551043E+01
          0                 3           2             4    7     1       0.1647022598E-02       5    8    1         0.9168884832E-01      0.2237644651E+00
          0                 4           1             4    7     1      -0.6553658649E-04       5    8    1        -0.3750085023E-02      0.9151927694E-02

    ------------------------------------------------
       NWT REQUIRED            4 OUTER ITERATIONS 
       AND A TOTAL OF          7 INNER ITERATIONS.
    ------------------------------------------------

 NO OUTPUT CONTROL FOR STRESS PERIOD   18   TIME STEP    6
 
 SOLVING FOR HEAD 
                                                   Max.-Head-Change                         Max.-Flux-Residual
  Residual-Control   Outer-Iter.   Inner-Iter.     Column Row Layer    Maximum-Head-Change  Column Row Layer    Maximum-Flux-Residual          L2-NORM 
          0                 1           2             5    8     1       0.1245292737E-01       5    8    1         0.6682021613E+00      0.1606046779E+01
          0                 2           2             4    7     1      -0.2420640946E-01       5    8    1        -0.1311795336E+01      0.3200487809E+01
          0                 3           2             4    7     1       0.1647905339E-02       5    8    1         0.9179916382E-01      0.2239675137E+00
          0                 4           1             4    7     1      -0.6557171146E-04       5    8    1        -0.3754596932E-02      0.9160195775E-02

    ------------------------------------------------
       NWT REQUIRED            4 OUTER ITERATIONS 
       AND A TOTAL OF          7 INNER ITERATIONS.
    ------------------------------------------------

 NO OUTPUT CONTROL FOR STRESS PERIOD   18   TIME STEP    7
 
 SOLVING FOR HEAD 
                                                   Max.-Head-Change                         Max.-Flux-Residual
  Residual-Control   Outer-Iter.   Inner-Iter.     Column Row Layer    Maximum-Head-Change  Column Row Layer    Maximum-Flux-Residual          L2-NORM 
          0                 1           2             5    8     1       0.1272606877E-01       5    8    1         0.6831550016E+00      0.1626872358E+01
          0                 2           2             4    7     1      -0.2421957360E-01       5    8    1        -0.1313290640E+01      0.3203335760E+01
          0                 3           2             4    7     1       0.1648801784E-02       5    8    1         0.9190383162E-01      0.2241642087E+00
          0                 4           1             4    7     1      -0.6560738190E-04       5    8    1        -0.3758877902E-02      0.9168163016E-02

    ------------------------------------------------
       NWT REQUIRED            4 OUTER ITERATIONS 
       AND A TOTAL OF          7 INNER ITERATIONS.
    ------------------------------------------------

 NO OUTPUT CONTROL FOR STRESS PERIOD   18   TIME STEP    8
 
 SOLVING FOR HEAD 
                                                   Max.-Head-Change                         Max.-Flux-Residual
  Residual-Control   Outer-Iter.   Inner-Iter.     Column Row Layer    Maximum-Head-Change  Column Row Layer    Maximum-Flux-Residual          L2-NORM 
          0                 1           2             5    8     1       0.1298553912E-01       5    8    1         0.6973480379E+00      0.1648373592E+01
          0                 2           2             4    7     1      -0.2423293206E-01       5    8    1        -0.1314709963E+01      0.3206096816E+01
          0                 3           2             4    7     1       0.1649711460E-02       5    8    1         0.9200318095E-01      0.2243575474E+00
          0                 4           1             4    7     1      -0.6564357894E-04       5    8    1        -0.3762941296E-02      0.9176047411E-02

    ------------------------------------------------
       NWT REQUIRED            4 OUTER ITERATIONS 
       AND A TOTAL OF          7 INNER ITERATIONS.
    ------------------------------------------------

 NO OUTPUT CONTROL FOR STRESS PERIOD   18   TIME STEP    9
 
 SOLVING FOR HEAD 
                                                   Max.-Head-Change                         Max.-Flux-Residual
  Residual-Control   Outer-Iter.   Inner-Iter.     Column Row Layer    Maximum-Head-Change  Column Row Layer    Maximum-Flux-Residual          L2-NORM 
          0                 1           2             5    8     1       0.1323225313E-01       5    8    1         0.7108322629E+00      0.1670252567E+01
          0                 2           2             4    7     1      -0.2424644007E-01       5    8    1        -0.1316058404E+01      0.3208774717E+01
          0                 3           2             4    7     1       0.1650631318E-02       5    8    1         0.9208132577E-01      0.2245365420E+00
          0                 4           1             4    7     1      -0.6568018065E-04       5    8    1        -0.3764561752E-02      0.9183177608E-02

    ------------------------------------------------
       NWT REQUIRED            4 OUTER ITERATIONS 
       AND A TOTAL OF          7 INNER ITERATIONS.
    ------------------------------------------------

 NO OUTPUT CONTROL FOR STRESS PERIOD   18   TIME STEP   10
 
 SOLVING FOR HEAD 
                                                   Max.-Head-Change                         Max.-Flux-Residual
  Residual-Control   Outer-Iter.   Inner-Iter.     Column Row Layer    Maximum-Head-Change  Column Row Layer    Maximum-Flux-Residual          L2-NORM 
          0                 1           2             5    8     1       0.1346704762E-01       5    8    1         0.7236549666E+00      0.1692277598E+01
          0                 2           2             4    7     1      -0.2426006848E-01       5    8    1        -0.1317340692E+01      0.3211371629E+01
          0                 3           2             4    7     1       0.1651559373E-02       5    8    1         0.9217159817E-01      0.2247155109E+00
          0                 4           1             4    7     1      -0.6571710875E-04       5    8    1        -0.3768303876E-02      0.9190340466E-02

    ------------------------------------------------
       NWT REQUIRED            4 OUTER ITERATIONS 
       AND A TOTAL OF          7 INNER ITERATIONS.
    ------------------------------------------------

 NO OUTPUT CONTROL FOR STRESS PERIOD   18   TIME STEP   11
 
 SOLVING FOR HEAD 
                                                   Max.-Head-Change                         Max.-Flux-Residual
  Residual-Control   Outer-Iter.   Inner-Iter.     Column Row Layer    Maximum-Head-Change  Column Row Layer    Maximum-Flux-Residual          L2-NORM 
          0                 1           2             5    8     1       0.1369056142E-01       5    8    1         0.7358519264E+00      0.1714269696E+01
          0                 2           2             4    7     1      -0.2427379055E-01       5    8    1        -0.1318560404E+01      0.3213889823E+01
          0                 3           2             4    7     1       0.1652493805E-02       5    8    1         0.9225745943E-01      0.2248896158E+00
          0                 4           1             4    7     1      -0.6575429059E-04       5    8    1        -0.3771862584E-02      0.9197328378E-02

    ------------------------------------------------
       NWT REQUIRED            4 OUTER ITERATIONS 
       AND A TOTAL OF          7 INNER ITERATIONS.
    ------------------------------------------------

 NO OUTPUT CONTROL FOR STRESS PERIOD   18   TIME STEP   12
 
 SOLVING FOR HEAD 
                                                   Max.-Head-Change                         Max.-Flux-Residual
  Residual-Control   Outer-Iter.   Inner-Iter.     Column Row Layer    Maximum-Head-Change  Column Row Layer    Maximum-Flux-Residual          L2-NORM 
          0                 1           2             5    8     1       0.1390352721E-01       5    8    1         0.7474640096E+00      0.1736104317E+01
          0                 2           2             4    7     1      -0.2428758090E-01       5    8    1        -0.1319721629E+01      0.3216332348E+01
          0                 3           2             4    7     1       0.1653432885E-02       5    8    1         0.9233919727E-01      0.2250606176E+00
          0                 4           1             4    7     1      -0.6579165756E-04       5    8    1        -0.3775249774E-02      0.9204240597E-02

    ------------------------------------------------
       NWT REQUIRED            4 OUTER ITERATIONS 
       AND A TOTAL OF          7 INNER ITERATIONS.
    ------------------------------------------------

 NO OUTPUT CONTROL FOR STRESS PERIOD   18   TIME STEP   13
 
 SOLVING FOR HEAD 
                                                   Max.-Head-Change                         Max.-Flux-Residual
  Residual-Control   Outer-Iter.   Inner-Iter.     Column Row Layer    Maximum-Head-Change  Column Row Layer    Maximum-Flux-Residual          L2-NORM 
          0                 1           2             5    8     1       0.1410676137E-01       5    8    1         0.7585370865E+00      0.1757706099E+01
          0                 2           2             4    7     1      -0.2430141702E-01       5    8    1        -0.1320828951E+01      0.3218703735E+01
          0                 3           2             4    7     1       0.1654375081E-02       5    8    1         0.9241713641E-01      0.2252266625E+00
          0                 4           1             4    7     1      -0.6582914817E-04       5    8    1        -0.3778479124E-02      0.9210961278E-02

    ------------------------------------------------
       NWT REQUIRED            4 OUTER ITERATIONS 
       AND A TOTAL OF          7 INNER ITERATIONS.
    ------------------------------------------------

 NO OUTPUT CONTROL FOR STRESS PERIOD   18   TIME STEP   14
 
 SOLVING FOR HEAD 
                                                   Max.-Head-Change                         Max.-Flux-Residual
  Residual-Control   Outer-Iter.   Inner-Iter.     Column Row Layer    Maximum-Head-Change  Column Row Layer    Maximum-Flux-Residual          L2-NORM 
          0                 1           2             5    8     1       0.1430060098E-01       5    8    1         0.7690898346E+00      0.1778977204E+01
          0                 2           2             4    7     1      -0.2431527716E-01       5    8    1        -0.1321884241E+01      0.3221003914E+01
          0                 3           2             4    7     1       0.1655318911E-02       5    8    1         0.9249140711E-01      0.2253877608E+00
          0                 4           1             4    7     1      -0.6586670429E-04       5    8    1        -0.3781555848E-02      0.9217491948E-02

    ------------------------------------------------
       NWT REQUIRED            4 OUTER ITERATIONS 
       AND A TOTAL OF          7 INNER ITERATIONS.
    ------------------------------------------------

 NO OUTPUT CONTROL FOR STRESS PERIOD   18   TIME STEP   15
 
 SOLVING FOR HEAD 
                                                   Max.-Head-Change                         Max.-Flux-Residual
  Residual-Control   Outer-Iter.   Inner-Iter.     Column Row Layer    Maximum-Head-Change  Column Row Layer    Maximum-Flux-Residual          L2-NORM 
          0                 1           2             5    8     1       0.1448591638E-01       5    8    1         0.7791712637E+00      0.1799894845E+01
          0                 2           2             4    7     1      -0.2432914181E-01       5    8    1        -0.1322892397E+01      0.3223237928E+01
          0                 3           2             4    7     1       0.1656263048E-02       5    8    1         0.9256235615E-01      0.2255442670E+00
          0                 4           1             4    7     1      -0.6590427227E-04       5    8    1        -0.3784494556E-02      0.9223837996E-02

    ------------------------------------------------
       NWT REQUIRED            4 OUTER ITERATIONS 
       AND A TOTAL OF          7 INNER ITERATIONS.
    ------------------------------------------------

 NO OUTPUT CONTROL FOR STRESS PERIOD   18   TIME STEP   16
 
 SOLVING FOR HEAD 
                                                   Max.-Head-Change                         Max.-Flux-Residual
  Residual-Control   Outer-Iter.   Inner-Iter.     Column Row Layer    Maximum-Head-Change  Column Row Layer    Maximum-Flux-Residual          L2-NORM 
          0                 1           2             5    8     1       0.1466295599E-01       5    8    1         0.7887949661E+00      0.1820401350E+01
          0                 2           2             4    7     1      -0.2434300553E-01       5    8    1        -0.1323854781E+01      0.3225406193E+01
          0                 3           2             4    7     1       0.1657207120E-02       5    8    1         0.9263007890E-01      0.2256961832E+00
          0                 4           1             4    7     1      -0.6594183760E-04       5    8    1        -0.3787299148E-02      0.9230006298E-02

    ------------------------------------------------
       NWT REQUIRED            4 OUTER ITERATIONS 
       AND A TOTAL OF          7 INNER ITERATIONS.
    ------------------------------------------------

 NO OUTPUT CONTROL FOR STRESS PERIOD   18   TIME STEP   17
 
 SOLVING FOR HEAD 
                                                   Max.-Head-Change                         Max.-Flux-Residual
  Residual-Control   Outer-Iter.   Inner-Iter.     Column Row Layer    Maximum-Head-Change  Column Row Layer    Maximum-Flux-Residual          L2-NORM 
          0                 1           2             5    8     1       0.1483237088E-01       5    8    1         0.7979974713E+00      0.1840500004E+01
          0                 2           2             4    7     1      -0.2435682527E-01       5    8    1        -0.1324775044E+01      0.3227513291E+01
          0                 3           2             4    7     1       0.1658148196E-02       5    8    1         0.9269483361E-01      0.2258438494E+00
          0                 4           1             4    7     1      -0.6597928411E-04       5    8    1        -0.3789980433E-02      0.9236007388E-02

    ------------------------------------------------
       NWT REQUIRED            4 OUTER ITERATIONS 
       AND A TOTAL OF          7 INNER ITERATIONS.
    ------------------------------------------------

 NO OUTPUT CONTROL FOR STRESS PERIOD   18   TIME STEP   18
 
 SOLVING FOR HEAD 
                                                   Max.-Head-Change                         Max.-Flux-Residual
  Residual-Control   Outer-Iter.   Inner-Iter.     Column Row Layer    Maximum-Head-Change  Column Row Layer    Maximum-Flux-Residual          L2-NORM 
          0                 1           2             5    8     1       0.1499448616E-01       5    8    1         0.8067967698E+00      0.1860155767E+01
          0                 2           2             4    7     1      -0.2437061294E-01       5    8    1        -0.1325654986E+01      0.3229559906E+01
          0                 3           2             4    7     1       0.1659087088E-02       5    8    1         0.9275674615E-01      0.2259872985E+00
          0                 4           1             4    7     1      -0.6601664360E-04       5    8    1        -0.3792543534E-02      0.9241846165E-02

    ------------------------------------------------
       NWT REQUIRED            4 OUTER ITERATIONS 
       AND A TOTAL OF          7 INNER ITERATIONS.
    ------------------------------------------------

 NO OUTPUT CONTROL FOR STRESS PERIOD   18   TIME STEP   19
 
 SOLVING FOR HEAD 
                                                   Max.-Head-Change                         Max.-Flux-Residual
  Residual-Control   Outer-Iter.   Inner-Iter.     Column Row Layer    Maximum-Head-Change  Column Row Layer    Maximum-Flux-Residual          L2-NORM 
          0                 1           2             5    8     1       0.1514988428E-01       5    8    1         0.8152254830E+00      0.1879369374E+01
          0                 2           2             4    7     1      -0.2438434032E-01       5    8    1        -0.1326497868E+01      0.3231548977E+01
          0                 3           2             4    7     1       0.1660021873E-02       5    8    1         0.9281604712E-01      0.2261267249E+00
          0                 4           1             4    7     1      -0.6605383948E-04       5    8    1        -0.3794998141E-02      0.9247522031E-02

    ------------------------------------------------
       NWT REQUIRED            4 OUTER ITERATIONS 
       AND A TOTAL OF          7 INNER ITERATIONS.
    ------------------------------------------------

 NO OUTPUT CONTROL FOR STRESS PERIOD   18   TIME STEP   20
 
 SOLVING FOR HEAD 
                                                   Max.-Head-Change                         Max.-Flux-Residual
  Residual-Control   Outer-Iter.   Inner-Iter.     Column Row Layer    Maximum-Head-Change  Column Row Layer    Maximum-Flux-Residual          L2-NORM 
          0                 1           2             5    8     1       0.1529881962E-01       5    8    1         0.8232980452E+00      0.1898130346E+01
          0                 2           2             4    7     1      -0.2439799439E-01       5    8    1        -0.1327305135E+01      0.3233481735E+01
          0                 3           2             4    7     1       0.1660951665E-02       5    8    1         0.9287283848E-01      0.2262622244E+00
          0                 4           1             4    7     1      -0.6609083654E-04       5    8    1        -0.3797348475E-02      0.9253044073E-02

    ------------------------------------------------
       NWT REQUIRED            4 OUTER ITERATIONS 
       AND A TOTAL OF          7 INNER ITERATIONS.
    ------------------------------------------------

 NO OUTPUT CONTROL FOR STRESS PERIOD   18   TIME STEP   21
 
 SOLVING FOR HEAD 
                                                   Max.-Head-Change                         Max.-Flux-Residual
  Residual-Control   Outer-Iter.   Inner-Iter.     Column Row Layer    Maximum-Head-Change  Column Row Layer    Maximum-Flux-Residual          L2-NORM 
          0                 1           2             5    8     1       0.1544182074E-01       5    8    1         0.8310434093E+00      0.1916466222E+01
          0                 2           2             4    7     1      -0.2441156440E-01       5    8    1        -0.1328079682E+01      0.3235362909E+01
          0                 3           2             4    7     1       0.1661875733E-02       5    8    1         0.9292732380E-01      0.2263941187E+00
          0                 4           1             4    7     1      -0.6612760611E-04       5    8    1        -0.3799602978E-02      0.9258421795E-02

    ------------------------------------------------
       NWT REQUIRED            4 OUTER ITERATIONS 
       AND A TOTAL OF          7 INNER ITERATIONS.
    ------------------------------------------------

 NO OUTPUT CONTROL FOR STRESS PERIOD   18   TIME STEP   22
 
 SOLVING FOR HEAD 
                                                   Max.-Head-Change                         Max.-Flux-Residual
  Residual-Control   Outer-Iter.   Inner-Iter.     Column Row Layer    Maximum-Head-Change  Column Row Layer    Maximum-Flux-Residual          L2-NORM 
          0                 1           2             5    8     1       0.1557895221E-01       5    8    1         0.8384653336E+00      0.1934350455E+01
          0                 2           2             4    7     1      -0.2442503984E-01       5    8    1        -0.1328821884E+01      0.3237191681E+01
          0                 3           2             4    7     1       0.1662793360E-02       5    8    1         0.9297953020E-01      0.2265223510E+00
          0                 4           1             4    7     1      -0.6616411940E-04       5    8    1        -0.3801762849E-02      0.9263655093E-02

    ------------------------------------------------
       NWT REQUIRED            4 OUTER ITERATIONS 
       AND A TOTAL OF          7 INNER ITERATIONS.
    ------------------------------------------------

 NO OUTPUT CONTROL FOR STRESS PERIOD   18   TIME STEP   23
 
 SOLVING FOR HEAD 
                                                   Max.-Head-Change                         Max.-Flux-Residual
  Residual-Control   Outer-Iter.   Inner-Iter.     Column Row Layer    Maximum-Head-Change  Column Row Layer    Maximum-Flux-Residual          L2-NORM 
          0                 1           2             5    8     1       0.1571083490E-01       5    8    1         0.8455986953E+00      0.1951799417E+01
          0                 2           2             4    7     1      -0.2443841046E-01       5    8    1        -0.1329535230E+01      0.3238970562E+01
          0                 3           2             4    7     1       0.1663703848E-02       5    8    1         0.9302970295E-01      0.2266470963E+00
          0                 4           1             4    7     1      -0.6620034856E-04       5    8    1        -0.3803838163E-02      0.9268747311E-02

    ------------------------------------------------
       NWT REQUIRED            4 OUTER ITERATIONS 
       AND A TOTAL OF          7 INNER ITERATIONS.
    ------------------------------------------------

 NO OUTPUT CONTROL FOR STRESS PERIOD   18   TIME STEP   24
 
 SOLVING FOR HEAD 
                                                   Max.-Head-Change                         Max.-Flux-Residual
  Residual-Control   Outer-Iter.   Inner-Iter.     Column Row Layer    Maximum-Head-Change  Column Row Layer    Maximum-Flux-Residual          L2-NORM 
          0                 1           2             5    8     1       0.1583748616E-01       5    8    1         0.8524441553E+00      0.1968825804E+01
          0                 2           2             4    7     1      -0.2445168172E-01       5    8    1        -0.1330219785E+01      0.3240702174E+01
          0                 3           2             4    7     1       0.1664607571E-02       5    8    1         0.9307784766E-01      0.2267685305E+00
          0                 4           1             4    7     1      -0.6623630855E-04       5    8    1        -0.3805829327E-02      0.9273704287E-02

    ------------------------------------------------
       NWT REQUIRED            4 OUTER ITERATIONS 
       AND A TOTAL OF          7 INNER ITERATIONS.
    ------------------------------------------------

 NO OUTPUT CONTROL FOR STRESS PERIOD   18   TIME STEP   25
 
 SOLVING FOR HEAD 
                                                   Max.-Head-Change                         Max.-Flux-Residual
  Residual-Control   Outer-Iter.   Inner-Iter.     Column Row Layer    Maximum-Head-Change  Column Row Layer    Maximum-Flux-Residual          L2-NORM 
          0                 1           2             5    8     1       0.1595934657E-01       5    8    1         0.8590262606E+00      0.1985428789E+01
          0                 2           2             4    7     1      -0.2446481873E-01       5    8    1        -0.1330878004E+01      0.3242387190E+01
          0                 3           2             4    7     1       0.1665502150E-02       5    8    1         0.9312413623E-01      0.2268867050E+00
          0                 4           1             4    7     1      -0.6627190417E-04       5    8    1        -0.3807743335E-02      0.9278534967E-02

    ------------------------------------------------
       NWT REQUIRED            4 OUTER ITERATIONS 
       AND A TOTAL OF          7 INNER ITERATIONS.
    ------------------------------------------------

 NO OUTPUT CONTROL FOR STRESS PERIOD   18   TIME STEP   26
 
 SOLVING FOR HEAD 
                                                   Max.-Head-Change                         Max.-Flux-Residual
  Residual-Control   Outer-Iter.   Inner-Iter.     Column Row Layer    Maximum-Head-Change  Column Row Layer    Maximum-Flux-Residual          L2-NORM 
          0                 1           2             5    8     1       0.1607682736E-01       5    8    1         0.8653678528E+00      0.2001631069E+01
          0                 2           2             4    7     1      -0.2447782816E-01       5    8    1        -0.1331512171E+01      0.3244028501E+01
          0                 3           2             4    7     1       0.1666388041E-02       5    8    1         0.9316872989E-01      0.2270018200E+00
          0                 4           1             4    7     1      -0.6630715509E-04       5    8    1        -0.3809586910E-02      0.9283238358E-02

    ------------------------------------------------
       NWT REQUIRED            4 OUTER ITERATIONS 
       AND A TOTAL OF          7 INNER ITERATIONS.
    ------------------------------------------------

 NO OUTPUT CONTROL FOR STRESS PERIOD   18   TIME STEP   27
 
 SOLVING FOR HEAD 
                                                   Max.-Head-Change                         Max.-Flux-Residual
  Residual-Control   Outer-Iter.   Inner-Iter.     Column Row Layer    Maximum-Head-Change  Column Row Layer    Maximum-Flux-Residual          L2-NORM 
          0                 1           2             5    8     1       0.1618988319E-01       5    8    1         0.8714666088E+00      0.2017431544E+01
          0                 2           2             4    7     1      -0.2449070439E-01       5    8    1        -0.1332122055E+01      0.3245626809E+01
          0                 3           2             4    7     1       0.1667264862E-02       5    8    1         0.9321161322E-01      0.2271139237E+00
          0                 4           1             4    7     1      -0.6634204474E-04       5    8    1        -0.3811359546E-02      0.9287822128E-02

    ------------------------------------------------
       NWT REQUIRED            4 OUTER ITERATIONS 
       AND A TOTAL OF          7 INNER ITERATIONS.
    ------------------------------------------------

 NO OUTPUT CONTROL FOR STRESS PERIOD   18   TIME STEP   28
 
 SOLVING FOR HEAD 
                                                   Max.-Head-Change                         Max.-Flux-Residual
  Residual-Control   Outer-Iter.   Inner-Iter.     Column Row Layer    Maximum-Head-Change  Column Row Layer    Maximum-Flux-Residual          L2-NORM 
          0                 1           2             5    8     1       0.1629876382E-01       5    8    1         0.8773359409E+00      0.2032842074E+01
          0                 2           2             4    7     1      -0.2450345491E-01       5    8    1        -0.1332708996E+01      0.3247183533E+01
          0                 3           2             4    7     1       0.1668133122E-02       5    8    1         0.9325287959E-01      0.2272233825E+00
          0                 4           1             4    7     1      -0.6637659326E-04       5    8    1        -0.3813064951E-02      0.9292323307E-02

    ------------------------------------------------
       NWT REQUIRED            4 OUTER ITERATIONS 
       AND A TOTAL OF          7 INNER ITERATIONS.
    ------------------------------------------------

 NO OUTPUT CONTROL FOR STRESS PERIOD   18   TIME STEP   29
 
 SOLVING FOR HEAD 
                                                   Max.-Head-Change                         Max.-Flux-Residual
  Residual-Control   Outer-Iter.   Inner-Iter.     Column Row Layer    Maximum-Head-Change  Column Row Layer    Maximum-Flux-Residual          L2-NORM 
          0                 1           2             5    8     1       0.1640383166E-01       5    8    1         0.8829966808E+00      0.2047882346E+01
          0                 2           2             4    7     1      -0.2451604850E-01       5    8    1        -0.1333275077E+01      0.3248701120E+01
          0                 3           2             4    7     1       0.1668990695E-02       5    8    1         0.9329267723E-01      0.2273295482E+00
          0                 4           1             4    7     1      -0.6641071720E-04       5    8    1        -0.3814709443E-02      0.9296644640E-02

    ------------------------------------------------
       NWT REQUIRED            4 OUTER ITERATIONS 
       AND A TOTAL OF          7 INNER ITERATIONS.
    ------------------------------------------------

 NO OUTPUT CONTROL FOR STRESS PERIOD   18   TIME STEP   30



 STREAM LISTING     PERIOD     18   STEP       30

 LAYER ROW COL. STREAM  RCH.  FLOW INTO     FLOW TO   FLOW OUT OF   OVRLND.     DIRECT     STREAM       STREAM     STREAM     STREAM   STREAMBED  STREAMBED
                SEG.NO.  NO.  STRM. RCH.    AQUIFER    STRM. RCH.    RUNOFF     PRECIP       ET          HEAD       DEPTH      WIDTH   CONDCTNC.   GRADIENT

   1    1    1     1     1    6.3001E+01  3.8237E-01   6.2619E+01  0.000E+00  0.000E+00  0.000E+00  1.09461E+03  1.562E+00  1.863E+01  8.382E-02  1.521E+00
   1    2    2     1     2    6.2619E+01  5.9218E-01   6.2026E+01  0.000E+00  0.000E+00  0.000E+00  1.08961E+03  1.556E+00  1.857E+01  1.300E-01  1.519E+00
   1    3    3     1     3    6.2026E+01  5.0506E-01   6.1521E+01  0.000E+00  0.000E+00  0.000E+00  1.08397E+03  1.549E+00  1.850E+01  1.110E-01  1.516E+00
   1    3    4     1     4    6.1521E+01  4.6511E-01   6.1056E+01  0.000E+00  0.000E+00  0.000E+00  1.07895E+03  1.543E+00  1.845E+01  1.024E-01  1.514E+00
   1    4    5     2     1    5.9056E+01  3.9145E-01   5.8665E+01  0.000E+00  0.000E+00  0.000E+00  1.07395E+03  2.019E+00  1.200E+01  7.800E-02  1.673E+00
   1    5    6     2     2    5.8665E+01  3.0069E-01   5.8364E+01  0.000E+00  0.000E+00  0.000E+00  1.06852E+03  2.011E+00  1.200E+01  6.000E-02  1.670E+00
   1    6    6     2     3    5.8364E+01  3.0031E-01   5.8064E+01  0.000E+00  0.000E+00  0.000E+00  1.06380E+03  2.005E+00  1.200E+01  6.000E-02  1.668E+00
   1    7    6     2     4    5.8064E+01  2.9994E-01   5.7764E+01  0.000E+00  0.000E+00  0.000E+00  1.05907E+03  1.999E+00  1.200E+01  6.000E-02  1.666E+00
   1    8    6     2     5    5.7764E+01  2.9957E-01   5.7464E+01  0.000E+00  0.000E+00  0.000E+00  1.05435E+03  1.993E+00  1.200E+01  6.000E-02  1.664E+00
   1    3    5     3     1    2.0000E+00  2.8252E-01   1.7175E+00  0.000E+00  0.000E+00  0.000E+00  1.07555E+03  1.909E+00  9.636E+00  7.227E-02  1.955E+00
   1    3    6     3     2    1.7175E+00  2.4905E-01   1.4684E+00  0.000E+00  0.000E+00  0.000E+00  1.07264E+03  1.727E+00  8.909E+00  6.682E-02  1.864E+00
   1    3    7     3     3    1.4684E+00  1.9718E-01   1.2712E+00  0.000E+00  0.000E+00  0.000E+00  1.06987E+03  1.555E+00  8.218E+00  5.547E-02  1.777E+00
   1    4    8     3     4    1.2712E+00  2.2567E-01   1.0456E+00  0.000E+00  0.000E+00  0.000E+00  1.06682E+03  1.364E+00  7.455E+00  6.709E-02  1.682E+00
   1    5    8     3     5    1.0456E+00  1.5790E-01   8.8768E-01  0.000E+00  0.000E+00  0.000E+00  1.06362E+03  1.164E+00  6.655E+00  4.991E-02  1.582E+00
   1    6    8     3     6    8.8768E-01  5.5980E-02   8.3170E-01  0.000E+00  0.000E+00  0.000E+00  1.06158E+03  1.036E+00  6.145E+00  1.844E-02  1.518E+00
   1    5   10     4     1    1.0000E+01  9.0919E-02   9.9091E+00  0.000E+00  0.000E+00  0.000E+00  1.07836E+03  6.368E-01  1.000E+01  2.500E-02  1.212E+00
   1    5    9     4     2    9.9091E+00  1.8158E-01   9.7275E+00  0.000E+00  0.000E+00  0.000E+00  1.07154E+03  6.315E-01  1.000E+01  5.000E-02  1.211E+00
   1    6    8     4     3    9.7275E+00  1.2689E-01   9.6006E+00  0.000E+00  0.000E+00  0.000E+00  1.06381E+03  6.256E-01  1.000E+01  3.500E-02  1.209E+00
   1    6    8     5     1    1.0432E+01  2.2686E-01   1.0205E+01  0.000E+00  0.000E+00  0.000E+00  1.05868E+03  6.790E-01  1.542E+01  6.166E-02  1.226E+00
   1    7    7     5     2    1.0205E+01  2.7894E-01   9.9265E+00  0.000E+00  0.000E+00  0.000E+00  1.05417E+03  6.732E-01  1.519E+01  7.594E-02  1.224E+00
   1    8    7     5     3    9.9265E+00  1.9221E-01   9.7343E+00  0.000E+00  0.000E+00  0.000E+00  1.04992E+03  6.676E-01  1.497E+01  5.241E-02  1.223E+00
   1    8    6     5     4    9.7343E+00  1.3577E-01   9.5985E+00  0.000E+00  0.000E+00  0.000E+00  1.04691E+03  6.637E-01  1.482E+01  3.706E-02  1.221E+00
   1    9    6     6     1    6.7063E+01  3.1225E-01   6.6751E+01  0.000E+00  0.000E+00  0.000E+00  1.04493E+03  2.204E+00  1.200E+01  6.000E-02  1.735E+00
   1   10    7     6     2    6.6751E+01  3.1188E-01   6.6439E+01  0.000E+00  0.000E+00  0.000E+00  1.04038E+03  2.198E+00  1.200E+01  6.000E-02  1.733E+00
   1   11    7     6     3    6.6439E+01  3.1151E-01   6.6127E+01  0.000E+00  0.000E+00  0.000E+00  1.03583E+03  2.192E+00  1.200E+01  6.000E-02  1.731E+00
   1   12    7     6     4    6.6127E+01  3.1114E-01   6.5816E+01  0.000E+00  0.000E+00  0.000E+00  1.03128E+03  2.186E+00  1.200E+01  6.000E-02  1.729E+00
   1   13    7     6     5    6.5816E+01  2.3661E-02   6.5792E+01  0.000E+00  0.000E+00  0.000E+00  1.02809E+03  2.182E+00  1.200E+01  2.400E-02  3.286E-01
   1   14    9     7     1    1.5000E+02  1.3311E+00   1.4867E+02  0.000E+00  0.000E+00  0.000E+00  1.03987E+03  2.288E+00  5.529E+01  5.593E-01  7.933E-01
   1   13    8     7     2    1.4867E+02  1.8237E+00   1.4685E+02  0.000E+00  0.000E+00  0.000E+00  1.03478E+03  2.279E+00  5.526E+01  6.148E-01  9.888E-01
   1   13    7     7     3    1.4685E+02  1.4433E+00   1.4540E+02  0.000E+00  0.000E+00  0.000E+00  1.02969E+03  2.271E+00  5.522E+01  5.585E-01  8.615E-01
   1   13    6     8     1    2.1119E+02  1.0609E+00   2.1013E+02  0.000E+00  0.000E+00  0.000E+00  1.02507E+03  3.199E+00  4.639E+01  4.727E-01  7.480E-01
   1   13    5     8     2    2.1013E+02  2.5333E-01   2.0988E+02  0.000E+00  0.000E+00  0.000E+00  1.01882E+03  3.196E+00  4.634E+01  4.722E-01  1.788E-01
   1   13    4     8     3    2.0988E+02 -2.1932E+00   2.1207E+02  0.000E+00  0.000E+00  0.000E+00  1.01258E+03  3.201E+00  4.642E+01  4.730E+00 -1.546E-01
   1   13    3     8     4    2.1207E+02 -3.4548E+00   2.1553E+02  0.000E+00  0.000E+00  0.000E+00  1.00634E+03  3.217E+00  4.665E+01  4.754E+00 -2.423E-01
   1   13    2     8     5    2.1553E+02 -2.5495E+00   2.1808E+02  0.000E+00  0.000E+00  0.000E+00  1.00011E+03  3.234E+00  4.689E+01  4.779E+00 -1.778E-01
   1   13    1     8     6    2.1808E+02 -2.0013E+00   2.2008E+02  0.000E+00  0.000E+00  0.000E+00  9.95122E+02  3.247E+00  4.708E+01  2.878E+00 -2.318E-01





UNSATURATED ZONE PACKAGE VOLUMETRIC BUDGET FOR  TIME STEP    30 STRESS PERIOD   18
  ------------------------------------------------------------------------------



     CUMULATIVE VOLUMES      L**3       RATES FOR THIS TIME STEP      L**3/T
     ------------------                 ------------------------

           IN:                                      IN:
           ---                                      ---
        INFILTRATION =   502442712.8893          INFILTRATION =           8.3175

          OUT:                                     OUT:
          ----                                     ----
              UZF ET =   464436318.5931                UZF ET =           8.3175
        UZF RECHARGE =    37934422.1554          UZF RECHARGE =       0.0000E+00

            IN - OUT =       71972.1408              IN - OUT =       0.0000E+00

          STORAGE:                                 STORAGE:
          --------                                 --------
      STORAGE CHANGE =       71972.6619        STORAGE CHANGE =      -2.0075E-13

 PERCENT DISCREPANCY IS DIFFERENCE BETWEEN IN-OUT MINUS CHANGE IN STORAGE
 DIVIDED BY THE AVERAGE OF IN AND OUT TIMES 100

 PERCENT DISCREPANCY =           0.00     PERCENT DISCREPANCY =           0.00






1
  VOLUMETRIC BUDGET FOR AGRICULTURAL FIELDS AT  END OF TIME STEP   30, STRESS PERIOD  18
  ------------------------------------------------------------------------------

     CUMULATIVE VOLUMES      L**3       RATES FOR THIS TIME STEP      L**3/T
     ------------------                 ------------------------

           IN:                                      IN:
           ---                                      ---
               AG WELLS  =   464477408.0000                 AG WELLS  =           7.4700
      DIVERSION SEGMENTS =           0.0000        DIVERSION SEGMENTS =           0.0000
       IRRIGATION PONDS  =           0.0000         IRRIGATION PONDS  =           0.0000
           GW IRRIGATION =           0.0000             GW IRRIGATION =           0.0000
           SW IRRIGATION =           0.0000             SW IRRIGATION =           0.0000
        SYSTEM LOSSES GW =           0.0000          SYSTEM LOSSES GW =           0.0000
        SYSTEM LOSSES SW =           0.0000          SYSTEM LOSSES SW =           0.0000

                TOTAL IN =   464477408.0000                  TOTAL IN =           7.4700

          OUT:                                     OUT:
          ----                                     ----
               AG WELLS  =           0.0000                 AG WELLS  =           0.0000
      DIVERSION SEGMENTS =           0.0000        DIVERSION SEGMENTS =           0.0000
       IRRIGATION PONDS  =           0.0000         IRRIGATION PONDS  =           0.0000
           GW IRRIGATION =   464477408.0000             GW IRRIGATION =           7.4700
           SW IRRIGATION =           0.0000             SW IRRIGATION =           0.0000
        SYSTEM LOSSES GW =           0.0000          SYSTEM LOSSES GW =           0.0000
        SYSTEM LOSSES SW =           0.0000          SYSTEM LOSSES SW =           0.0000

               TOTAL OUT =   464477408.0000                 TOTAL OUT =           7.4700

                IN - OUT =           0.0000                  IN - OUT =           0.0000

     PERCENT DISCREPANCY =           0.00         PERCENT DISCREPANCY =           0.00



1
  VOLUMETRIC BUDGET FOR ENTIRE MODEL AT END OF TIME STEP   30, STRESS PERIOD  18
  ------------------------------------------------------------------------------

     CUMULATIVE VOLUMES      L**3       RATES FOR THIS TIME STEP      L**3/T
     ------------------                 ------------------------

           IN:                                      IN:
           ---                                      ---
             STORAGE     =   623329280.0000               STORAGE     =           5.4657
       CONSTANT HEAD     =           0.0000         CONSTANT HEAD     =           0.0000
     HEAD DEP BOUNDS     =    12785397.0000       HEAD DEP BOUNDS     =           0.2854
      STREAM LEAKAGE     =   561945472.0000        STREAM LEAKAGE     =          13.1209
        UZF RECHARGE     =    37934444.0000          UZF RECHARGE     =           0.0000
               GW ET     =           0.0000                 GW ET     =           0.0000
     SURFACE LEAKAGE     =           0.0000       SURFACE LEAKAGE     =           0.0000
           AG WELLS      =           0.0000             AG WELLS      =           0.0000

                TOTAL IN =  1235994624.0000                  TOTAL IN =          18.8720

          OUT:                                     OUT:
          ----                                     ----
             STORAGE     =   281193696.0000               STORAGE     =           0.6348
       CONSTANT HEAD     =           0.0000         CONSTANT HEAD     =           0.0000
     HEAD DEP BOUNDS     =    13199330.0000       HEAD DEP BOUNDS     =           0.2970
      STREAM LEAKAGE     =   461730720.0000        STREAM LEAKAGE     =          10.1988
        UZF RECHARGE     =           0.0000          UZF RECHARGE     =           0.0000
               GW ET     =    15398649.0000                 GW ET     =           0.2711
     SURFACE LEAKAGE     =           0.0000       SURFACE LEAKAGE     =           0.0000
           AG WELLS      =   464477408.0000             AG WELLS      =           7.4700

               TOTAL OUT =  1235999872.0000                 TOTAL OUT =          18.8717

                IN - OUT =       -5248.0000                  IN - OUT =       2.9945E-04

     PERCENT DISCREPANCY =          -0.00         PERCENT DISCREPANCY =           0.00






         TIME SUMMARY AT END OF TIME STEP   30 IN STRESS PERIOD   18
                    SECONDS     MINUTES      HOURS       DAYS        YEARS
                    -----------------------------------------------------------
   TIME STEP LENGTH  87667.      1461.1      24.352      1.0147     2.77799E-03
 STRESS PERIOD TIME 2.63000E+06  43833.      730.56      30.440     8.33397E-02
         TOTAL TIME 4.47965E+07 7.46608E+05  12443.      518.48      1.4195    
1
1
                            STRESS PERIOD NO.   19, LENGTH =   2630000.    
                            -----------------------------------------------

                              NUMBER OF TIME STEPS =    30

                               MULTIPLIER FOR DELT =     1.000

                            INITIAL TIME STEP SIZE =   87666.66    

 REUSING NON-PARAMETER GHB CELLS FROM LAST STRESS PERIOD

      2 GHB CELLS

 REUSING STREAM SEGMENT DATA FROM LAST STRESS PERIOD



            AREAL INFILTRATION RATE
 READING ON UNIT   19 WITH FORMAT: (FREE)              

            1           2           3           4           5           6           7           8           9          10
 ........................................................................................................................
   1   1.0000E-10  2.0000E-10   0.000       0.000       0.000       0.000       0.000       0.000       0.000       0.000    
   2   2.0000E-10  1.0000E-10  2.0000E-10   0.000       0.000      8.0000E-10  8.0000E-10  5.0000E-10   0.000       0.000    
   3    0.000      5.0000E-10  1.0000E-10  1.0000E-10  8.0000E-10  8.0000E-10  5.0000E-10  5.0000E-10   0.000       0.000    
   4   8.0000E-10  5.0000E-10  1.0000E-10  1.0000E-10  1.0000E-10  1.0000E-10  1.0000E-10  1.0000E-10  2.0000E-10   0.000    
   5   8.0000E-10  5.0000E-10  1.0000E-10  1.0000E-10  1.0000E-10  1.0000E-10  1.0000E-10  1.0000E-10  1.0000E-10  1.0000E-10
   6   8.0000E-10  5.0000E-10  5.0000E-10  2.0000E-10  2.0000E-10  1.0000E-10  1.0000E-10  1.0000E-10  1.0000E-10  5.0000E-10
   7   8.0000E-10  5.0000E-10  5.0000E-10  2.0000E-10  2.0000E-10  1.0000E-10  1.0000E-10  2.0000E-10  2.0000E-10   0.000    
   8    0.000      5.0000E-10  5.0000E-10  2.0000E-10  2.0000E-10  1.0000E-10  1.0000E-10  2.0000E-10  5.0000E-10   0.000    
   9    0.000      5.0000E-10  5.0000E-10  2.0000E-10  2.0000E-10  1.0000E-10  1.0000E-10  2.0000E-10  5.0000E-10   0.000    
  10    0.000      5.0000E-10  5.0000E-10  2.0000E-10  2.0000E-10  1.0000E-10  1.0000E-10  2.0000E-10  5.0000E-10  8.0000E-10
  11    0.000      1.0000E-10  1.0000E-10  1.0000E-10  1.0000E-10  1.0000E-10  1.0000E-10  2.0000E-10  5.0000E-10   0.000    
  12   1.0000E-10  1.0000E-10  1.0000E-10  1.0000E-10  1.0000E-10  1.0000E-10  1.0000E-10  1.0000E-10  2.0000E-10   0.000    
  13   1.0000E-10  1.0000E-10  2.0000E-10  2.0000E-10  2.0000E-10  2.0000E-10  2.0000E-10  1.0000E-10  1.0000E-10   0.000    
  14    0.000      2.0000E-10  5.0000E-10  5.0000E-10  5.0000E-10  5.0000E-10  5.0000E-10  2.0000E-10  1.0000E-10   0.000    
  15    0.000       0.000      8.0000E-10  8.0000E-10  8.0000E-10  8.0000E-10   0.000       0.000       0.000       0.000    

                  ET RATE =  1.500000E-07

 USING ET EXTINCTION DEPTH FROM PREVIOUS STRESS PERIOD. CURRENT PERIOD IS:      19

 USING EXTINCTION WATER CONTENT FROM PREVIOUS STRESS PERIOD. CURRENT PERIOD IS:      19

 USING AIR ENTRY PRESSURE FROM PREVIOUS STRESS PERIOD. CURRENT PERIOD IS:      19

 USING ROOT PRESSURE HEAD FROM PREVIOUS STRESS PERIOD. CURRENT PERIOD IS:      19

 USING ROOT ACTIVITY FROM PREVIOUS STRESS PERIOD. CURRENT PERIOD IS:      19

 PROCESSING AG STRESS PERIOD DATA

 READING AG STRESS PERIOD DATA

 READING IRRIGATION WELL

 NO IRRPOND OR REUSING IRRPOND DATA FROM LAST STRESS PERIOD

 END PROCESSING AG STRESS PERIOD DATA OPTIONS
 
 SOLVING FOR HEAD 
                                                   Max.-Head-Change                         Max.-Flux-Residual
  Residual-Control   Outer-Iter.   Inner-Iter.     Column Row Layer    Maximum-Head-Change  Column Row Layer    Maximum-Flux-Residual          L2-NORM 
          0                 1           2             4    7     1      -0.5811488488E-01       4    7    1        -0.3038307334E+01      0.7222123183E+01
          0                 2           2             4    7     1       0.5652960823E-02       4    7    1         0.3038286949E+00      0.7221102853E+00
          0                 3           2             4    7     1      -0.3849459524E-03       4    7    1        -0.2126803487E-01      0.5053934464E-01
          0                 4           1             4    7     1       0.1531735871E-04       4    7    1         0.8698637716E-03      0.2066560733E-02

    ------------------------------------------------
       NWT REQUIRED            4 OUTER ITERATIONS 
       AND A TOTAL OF          7 INNER ITERATIONS.
    ------------------------------------------------

 OUTPUT CONTROL FOR STRESS PERIOD   19   TIME STEP    1
    PRINT BUDGET
    SAVE BUDGET
 UBDSV1 SAVING "         STORAGE" ON UNIT 102 AT TIME STEP 1, STRESS PERIOD 19
 UBDSV2 SAVING "   CONSTANT HEAD" ON UNIT 102 AT TIME STEP 1, STRESS PERIOD 19
 UBDSV1 SAVING "FLOW RIGHT FACE " ON UNIT 102 AT TIME STEP 1, STRESS PERIOD 19
 UBDSV1 SAVING "FLOW FRONT FACE " ON UNIT 102 AT TIME STEP 1, STRESS PERIOD 19

  HEAD DEP BOUNDS   PERIOD   19   STEP     1
 BOUNDARY      1   LAYER   1   ROW    13   COL     1   RATE   -0.296990    
 BOUNDARY      2   LAYER   1   ROW    14   COL     9   RATE    0.285441    



 STREAM LISTING     PERIOD     19   STEP        1

 LAYER ROW COL. STREAM  RCH.  FLOW INTO     FLOW TO   FLOW OUT OF   OVRLND.     DIRECT     STREAM       STREAM     STREAM     STREAM   STREAMBED  STREAMBED
                SEG.NO.  NO.  STRM. RCH.    AQUIFER    STRM. RCH.    RUNOFF     PRECIP       ET          HEAD       DEPTH      WIDTH   CONDCTNC.   GRADIENT

   1    1    1     1     1    5.8202E+01  3.6567E-01   5.7837E+01  0.000E+00  0.000E+00  0.000E+00  1.09455E+03  1.503E+00  1.804E+01  8.120E-02  1.501E+00
   1    2    2     1     2    5.7837E+01  5.6626E-01   5.7270E+01  0.000E+00  0.000E+00  0.000E+00  1.08956E+03  1.498E+00  1.799E+01  1.259E-01  1.499E+00
   1    3    3     1     3    5.7270E+01  4.8288E-01   5.6788E+01  0.000E+00  0.000E+00  0.000E+00  1.08391E+03  1.491E+00  1.792E+01  1.075E-01  1.497E+00
   1    3    4     1     4    5.6788E+01  4.4463E-01   5.6343E+01  0.000E+00  0.000E+00  0.000E+00  1.07889E+03  1.485E+00  1.786E+01  9.913E-02  1.495E+00
   1    4    5     2     1    5.4343E+01  3.8376E-01   5.3959E+01  0.000E+00  0.000E+00  0.000E+00  1.07385E+03  1.920E+00  1.200E+01  7.800E-02  1.640E+00
   1    5    6     2     2    5.3959E+01  2.9477E-01   5.3664E+01  0.000E+00  0.000E+00  0.000E+00  1.06842E+03  1.913E+00  1.200E+01  6.000E-02  1.638E+00
   1    6    6     2     3    5.3664E+01  2.9439E-01   5.3370E+01  0.000E+00  0.000E+00  0.000E+00  1.06370E+03  1.907E+00  1.200E+01  6.000E-02  1.636E+00
   1    7    6     2     4    5.3370E+01  2.9401E-01   5.3076E+01  0.000E+00  0.000E+00  0.000E+00  1.05898E+03  1.900E+00  1.200E+01  6.000E-02  1.633E+00
   1    8    6     2     5    5.3076E+01  2.9364E-01   5.2782E+01  0.000E+00  0.000E+00  0.000E+00  1.05425E+03  1.894E+00  1.200E+01  6.000E-02  1.631E+00
   1    3    5     3     1    2.0000E+00  2.8252E-01   1.7175E+00  0.000E+00  0.000E+00  0.000E+00  1.07555E+03  1.909E+00  9.636E+00  7.227E-02  1.955E+00
   1    3    6     3     2    1.7175E+00  2.4905E-01   1.4684E+00  0.000E+00  0.000E+00  0.000E+00  1.07264E+03  1.727E+00  8.909E+00  6.682E-02  1.864E+00
   1    3    7     3     3    1.4684E+00  1.9718E-01   1.2712E+00  0.000E+00  0.000E+00  0.000E+00  1.06987E+03  1.555E+00  8.218E+00  5.547E-02  1.777E+00
   1    4    8     3     4    1.2712E+00  2.2567E-01   1.0456E+00  0.000E+00  0.000E+00  0.000E+00  1.06682E+03  1.364E+00  7.455E+00  6.709E-02  1.682E+00
   1    5    8     3     5    1.0456E+00  1.5790E-01   8.8768E-01  0.000E+00  0.000E+00  0.000E+00  1.06362E+03  1.164E+00  6.655E+00  4.991E-02  1.582E+00
   1    6    8     3     6    8.8768E-01  5.5980E-02   8.3170E-01  0.000E+00  0.000E+00  0.000E+00  1.06158E+03  1.036E+00  6.145E+00  1.844E-02  1.518E+00
   1    5   10     4     1    1.0000E+01  9.0919E-02   9.9091E+00  0.000E+00  0.000E+00  0.000E+00  1.07836E+03  6.368E-01  1.000E+01  2.500E-02  1.212E+00
   1    5    9     4     2    9.9091E+00  1.8158E-01   9.7275E+00  0.000E+00  0.000E+00  0.000E+00  1.07154E+03  6.315E-01  1.000E+01  5.000E-02  1.211E+00
   1    6    8     4     3    9.7275E+00  1.2689E-01   9.6006E+00  0.000E+00  0.000E+00  0.000E+00  1.06381E+03  6.256E-01  1.000E+01  3.500E-02  1.209E+00
   1    6    8     5     1    1.0432E+01  2.2686E-01   1.0205E+01  0.000E+00  0.000E+00  0.000E+00  1.05868E+03  6.790E-01  1.542E+01  6.166E-02  1.226E+00
   1    7    7     5     2    1.0205E+01  2.7894E-01   9.9265E+00  0.000E+00  0.000E+00  0.000E+00  1.05417E+03  6.732E-01  1.519E+01  7.594E-02  1.224E+00
   1    8    7     5     3    9.9265E+00  1.9221E-01   9.7343E+00  0.000E+00  0.000E+00  0.000E+00  1.04992E+03  6.676E-01  1.497E+01  5.241E-02  1.223E+00
   1    8    6     5     4    9.7343E+00  1.3577E-01   9.5985E+00  0.000E+00  0.000E+00  0.000E+00  1.04691E+03  6.637E-01  1.482E+01  3.706E-02  1.221E+00
   1    9    6     6     1    6.2381E+01  3.0662E-01   6.2074E+01  0.000E+00  0.000E+00  0.000E+00  1.04484E+03  2.110E+00  1.200E+01  6.000E-02  1.703E+00
   1   10    7     6     2    6.2074E+01  3.0625E-01   6.1768E+01  0.000E+00  0.000E+00  0.000E+00  1.04029E+03  2.104E+00  1.200E+01  6.000E-02  1.701E+00
   1   11    7     6     3    6.1768E+01  3.0587E-01   6.1462E+01  0.000E+00  0.000E+00  0.000E+00  1.03573E+03  2.098E+00  1.200E+01  6.000E-02  1.699E+00
   1   12    7     6     4    6.1462E+01  3.0550E-01   6.1157E+01  0.000E+00  0.000E+00  0.000E+00  1.03118E+03  2.092E+00  1.200E+01  6.000E-02  1.697E+00
   1   13    7     6     5    6.1157E+01  2.1412E-02   6.1135E+01  0.000E+00  0.000E+00  0.000E+00  1.02800E+03  2.088E+00  1.200E+01  2.400E-02  2.974E-01
   1   14    9     7     1    1.5000E+02  1.3312E+00   1.4867E+02  0.000E+00  0.000E+00  0.000E+00  1.03987E+03  2.288E+00  5.529E+01  5.593E-01  7.933E-01
   1   13    8     7     2    1.4867E+02  1.8238E+00   1.4685E+02  0.000E+00  0.000E+00  0.000E+00  1.03478E+03  2.279E+00  5.526E+01  6.148E-01  9.889E-01
   1   13    7     7     3    1.4685E+02  1.4435E+00   1.4540E+02  0.000E+00  0.000E+00  0.000E+00  1.02969E+03  2.271E+00  5.522E+01  5.585E-01  8.616E-01
   1   13    6     8     1    2.0654E+02  1.0400E+00   2.0550E+02  0.000E+00  0.000E+00  0.000E+00  1.02505E+03  3.173E+00  4.601E+01  4.688E-01  7.394E-01
   1   13    5     8     2    2.0550E+02  2.3913E-01   2.0526E+02  0.000E+00  0.000E+00  0.000E+00  1.01879E+03  3.169E+00  4.595E+01  4.683E-01  1.702E-01
   1   13    4     8     3    2.0526E+02 -2.2774E+00   2.0754E+02  0.000E+00  0.000E+00  0.000E+00  1.01255E+03  3.175E+00  4.604E+01  4.691E+00 -1.618E-01
   1   13    3     8     4    2.0754E+02 -3.5180E+00   2.1105E+02  0.000E+00  0.000E+00  0.000E+00  1.00632E+03  3.192E+00  4.628E+01  4.716E+00 -2.487E-01
   1   13    2     8     5    2.1105E+02 -2.6386E+00   2.1369E+02  0.000E+00  0.000E+00  0.000E+00  1.00008E+03  3.209E+00  4.653E+01  4.742E+00 -1.855E-01
   1   13    1     8     6    2.1369E+02 -2.0516E+00   2.1574E+02  0.000E+00  0.000E+00  0.000E+00  9.95097E+02  3.222E+00  4.672E+01  2.857E+00 -2.394E-01



 UBDSV3 SAVING "           GW ET" ON UNIT  61 AT TIME STEP 1, STRESS PERIOD 19
 UBDSV3 SAVING "    UZF RECHARGE" ON UNIT  61 AT TIME STEP 1, STRESS PERIOD 19
 UBDSV3 SAVING " SURFACE LEAKAGE" ON UNIT  61 AT TIME STEP 1, STRESS PERIOD 19
 UBDSV3 SAVING "       HORT+DUNN" ON UNIT  61 AT TIME STEP 1, STRESS PERIOD 19
 UBDSV3 SAVING "  STORAGE CHANGE" ON UNIT  61 AT TIME STEP 1, STRESS PERIOD 19


UNSATURATED ZONE PACKAGE VOLUMETRIC BUDGET FOR  TIME STEP     1 STRESS PERIOD   19
  ------------------------------------------------------------------------------



     CUMULATIVE VOLUMES      L**3       RATES FOR THIS TIME STEP      L**3/T
     ------------------                 ------------------------

           IN:                                      IN:
           ---                                      ---
        INFILTRATION =   504489510.6352          INFILTRATION =          23.3475

          OUT:                                     OUT:
          ----                                     ----
              UZF ET =   466480486.0890                UZF ET =          23.3175
        UZF RECHARGE =    37934422.1554          UZF RECHARGE =       0.0000E+00

            IN - OUT =       74602.3908              IN - OUT =       3.0004E-02

          STORAGE:                                 STORAGE:
          --------                                 --------
      STORAGE CHANGE =       74602.8955        STORAGE CHANGE =       3.0003E-02

 PERCENT DISCREPANCY IS DIFFERENCE BETWEEN IN-OUT MINUS CHANGE IN STORAGE
 DIVIDED BY THE AVERAGE OF IN AND OUT TIMES 100

 PERCENT DISCREPANCY =           0.00     PERCENT DISCREPANCY =           0.00






 

            AG WELLS      PERIOD   19   STEP   1
 AG WELL      1   LAYER   1   ROW     6   COL     4   RATE    -3.75000    
 AG WELL      2   LAYER   1   ROW     6   COL     5   RATE    -3.75000    
 AG WELL      3   LAYER   1   ROW     7   COL     4   RATE    -3.75000    
 AG WELL      4   LAYER   1   ROW     7   COL     5   RATE    -3.75000    
 AG WELL      5   LAYER   1   ROW     8   COL     4   RATE    -3.75000    
 AG WELL      6   LAYER   1   ROW     8   COL     5   RATE    -3.75000    
 
 

        GW IRRIGATION     PERIOD   19   STEP   1
 AG WELL      1   ROW     6   COL     4   RATE     3.75000    
 AG WELL      2   ROW     6   COL     5   RATE     3.75000    
 AG WELL      3   ROW     7   COL     4   RATE     3.75000    
 AG WELL      4   ROW     7   COL     5   RATE     3.75000    
 AG WELL      5   ROW     8   COL     4   RATE     3.75000    
 AG WELL      6   ROW     8   COL     5   RATE     3.75000    
 
1
  VOLUMETRIC BUDGET FOR AGRICULTURAL FIELDS AT  END OF TIME STEP    1, STRESS PERIOD  19
  ------------------------------------------------------------------------------

     CUMULATIVE VOLUMES      L**3       RATES FOR THIS TIME STEP      L**3/T
     ------------------                 ------------------------

           IN:                                      IN:
           ---                                      ---
               AG WELLS  =   466449920.0000                 AG WELLS  =          22.5000
      DIVERSION SEGMENTS =           0.0000        DIVERSION SEGMENTS =           0.0000
       IRRIGATION PONDS  =           0.0000         IRRIGATION PONDS  =           0.0000
           GW IRRIGATION =           0.0000             GW IRRIGATION =           0.0000
           SW IRRIGATION =           0.0000             SW IRRIGATION =           0.0000
        SYSTEM LOSSES GW =           0.0000          SYSTEM LOSSES GW =           0.0000
        SYSTEM LOSSES SW =           0.0000          SYSTEM LOSSES SW =           0.0000

                TOTAL IN =   466449920.0000                  TOTAL IN =          22.5000

          OUT:                                     OUT:
          ----                                     ----
               AG WELLS  =           0.0000                 AG WELLS  =           0.0000
      DIVERSION SEGMENTS =           0.0000        DIVERSION SEGMENTS =           0.0000
       IRRIGATION PONDS  =           0.0000         IRRIGATION PONDS  =           0.0000
           GW IRRIGATION =   466449920.0000             GW IRRIGATION =          22.5000
           SW IRRIGATION =           0.0000             SW IRRIGATION =           0.0000
        SYSTEM LOSSES GW =           0.0000          SYSTEM LOSSES GW =           0.0000
        SYSTEM LOSSES SW =           0.0000          SYSTEM LOSSES SW =           0.0000

               TOTAL OUT =   466449920.0000                 TOTAL OUT =          22.5000

                IN - OUT =           0.0000                  IN - OUT =           0.0000

     PERCENT DISCREPANCY =           0.00         PERCENT DISCREPANCY =           0.00



1
  VOLUMETRIC BUDGET FOR ENTIRE MODEL AT END OF TIME STEP    1, STRESS PERIOD  19
  ------------------------------------------------------------------------------

     CUMULATIVE VOLUMES      L**3       RATES FOR THIS TIME STEP      L**3/T
     ------------------                 ------------------------

           IN:                                      IN:
           ---                                      ---
             STORAGE     =   625200448.0000               STORAGE     =          21.3441
       CONSTANT HEAD     =           0.0000         CONSTANT HEAD     =           0.0000
     HEAD DEP BOUNDS     =    12810421.0000       HEAD DEP BOUNDS     =           0.2854
      STREAM LEAKAGE     =   563080256.0000        STREAM LEAKAGE     =          12.9446
        UZF RECHARGE     =    37934444.0000          UZF RECHARGE     =           0.0000
               GW ET     =           0.0000                 GW ET     =           0.0000
     SURFACE LEAKAGE     =           0.0000       SURFACE LEAKAGE     =           0.0000
           AG WELLS      =           0.0000             AG WELLS      =           0.0000

                TOTAL IN =  1239025536.0000                  TOTAL IN =          34.5741

          OUT:                                     OUT:
          ----                                     ----
             STORAGE     =   281242528.0000               STORAGE     =           0.5571
       CONSTANT HEAD     =           0.0000         CONSTANT HEAD     =           0.0000
     HEAD DEP BOUNDS     =    13225366.0000       HEAD DEP BOUNDS     =           0.2970
      STREAM LEAKAGE     =   462649984.0000        STREAM LEAKAGE     =          10.4857
        UZF RECHARGE     =           0.0000          UZF RECHARGE     =           0.0000
               GW ET     =    15463028.0000                 GW ET     =           0.7344
     SURFACE LEAKAGE     =           0.0000       SURFACE LEAKAGE     =           0.0000
           AG WELLS      =   466449920.0000             AG WELLS      =          22.5000

               TOTAL OUT =  1239030784.0000                 TOTAL OUT =          34.5742

                IN - OUT =       -5248.0000                  IN - OUT =      -7.2479E-05

     PERCENT DISCREPANCY =          -0.00         PERCENT DISCREPANCY =          -0.00






         TIME SUMMARY AT END OF TIME STEP    1 IN STRESS PERIOD   19
                    SECONDS     MINUTES      HOURS       DAYS        YEARS
                    -----------------------------------------------------------
   TIME STEP LENGTH  87667.      1461.1      24.352      1.0147     2.77799E-03
 STRESS PERIOD TIME  87667.      1461.1      24.352      1.0147     2.77799E-03
         TOTAL TIME 4.48841E+07 7.48069E+05  12468.      519.49      1.4223    
1
 
 SOLVING FOR HEAD 
                                                   Max.-Head-Change                         Max.-Flux-Residual
  Residual-Control   Outer-Iter.   Inner-Iter.     Column Row Layer    Maximum-Head-Change  Column Row Layer    Maximum-Flux-Residual          L2-NORM 
          0                 1           2             5    8     1       0.1791514485E-01       5    8    1         0.9660816731E+00      0.2254719467E+01
          0                 2           2             4    7     1      -0.7114238222E-01       5    8    1        -0.3841573001E+01      0.9386634001E+01
          0                 3           2             4    7     1       0.4844498854E-02       5    8    1         0.2688598250E+00      0.6569925024E+00
          0                 4           2             4    7     1      -0.1927672809E-03       5    8    1        -0.1099262176E-01      0.2686815179E-01
          0                 5           1             4    7     1       0.2376903962E-05       5    8    1         0.1390515713E-03      0.3411756621E-03

    ------------------------------------------------
       NWT REQUIRED            5 OUTER ITERATIONS 
       AND A TOTAL OF          9 INNER ITERATIONS.
    ------------------------------------------------

 NO OUTPUT CONTROL FOR STRESS PERIOD   19   TIME STEP    2
 
 SOLVING FOR HEAD 
                                                   Max.-Head-Change                         Max.-Flux-Residual
  Residual-Control   Outer-Iter.   Inner-Iter.     Column Row Layer    Maximum-Head-Change  Column Row Layer    Maximum-Flux-Residual          L2-NORM 
          0                 1           2             5    8     1       0.1924739830E-01       5    8    1         0.1039278817E+01      0.2377187992E+01
          0                 2           2             4    7     1      -0.7118108388E-01       5    8    1        -0.3848893105E+01      0.9399032372E+01
          0                 3           2             4    7     1       0.4846490737E-02       5    8    1         0.2693396429E+00      0.6577745504E+00
          0                 4           2             4    7     1      -0.1928465386E-03       5    8    1        -0.1101253704E-01      0.2689980903E-01
          0                 5           1             4    7     1       0.2377881179E-05       5    8    1         0.1393236757E-03      0.3414171637E-03

    ------------------------------------------------
       NWT REQUIRED            5 OUTER ITERATIONS 
       AND A TOTAL OF          9 INNER ITERATIONS.
    ------------------------------------------------

 NO OUTPUT CONTROL FOR STRESS PERIOD   19   TIME STEP    3
 
 SOLVING FOR HEAD 
                                                   Max.-Head-Change                         Max.-Flux-Residual
  Residual-Control   Outer-Iter.   Inner-Iter.     Column Row Layer    Maximum-Head-Change  Column Row Layer    Maximum-Flux-Residual          L2-NORM 
          0                 1           2             5    8     1       0.2050832882E-01       5    8    1         0.1108495594E+01      0.2503286306E+01
          0                 2           2             4    7     1      -0.7122133185E-01       5    8    1        -0.3855814934E+01      0.9411033139E+01
          0                 3           2             4    7     1       0.4849231745E-02       5    8    1         0.2698269043E+00      0.6586163035E+00
          0                 4           2             4    7     1      -0.1929556047E-03       5    8    1        -0.1103273643E-01      0.2693401394E-01
          0                 5           1             4    7     1       0.2379226253E-05       5    8    1         0.1395980062E-03      0.3417188983E-03

    ------------------------------------------------
       NWT REQUIRED            5 OUTER ITERATIONS 
       AND A TOTAL OF          9 INNER ITERATIONS.
    ------------------------------------------------

 NO OUTPUT CONTROL FOR STRESS PERIOD   19   TIME STEP    4
 
 SOLVING FOR HEAD 
                                                   Max.-Head-Change                         Max.-Flux-Residual
  Residual-Control   Outer-Iter.   Inner-Iter.     Column Row Layer    Maximum-Head-Change  Column Row Layer    Maximum-Flux-Residual          L2-NORM 
          0                 1           2             5    8     1       0.2170294074E-01       5    8    1         0.1174013558E+01      0.2629952109E+01
          0                 2           2             4    7     1      -0.7126299193E-01       5    8    1        -0.3862366880E+01      0.9422649241E+01
          0                 3           2             4    7     1       0.4852068888E-02       5    8    1         0.2702880870E+00      0.6594315692E+00
          0                 4           2             4    7     1      -0.1930684958E-03       5    8    1        -0.1105185072E-01      0.2696723314E-01
          0                 5           1             4    7     1       0.2380618150E-05       5    8    1         0.1398573363E-03      0.3420295766E-03

    ------------------------------------------------
       NWT REQUIRED            5 OUTER ITERATIONS 
       AND A TOTAL OF          9 INNER ITERATIONS.
    ------------------------------------------------

 NO OUTPUT CONTROL FOR STRESS PERIOD   19   TIME STEP    5
 
 SOLVING FOR HEAD 
                                                   Max.-Head-Change                         Max.-Flux-Residual
  Residual-Control   Outer-Iter.   Inner-Iter.     Column Row Layer    Maximum-Head-Change  Column Row Layer    Maximum-Flux-Residual          L2-NORM 
          0                 1           2             5    8     1       0.2283571437E-01       5    8    1         0.1236085392E+01      0.2755345510E+01
          0                 2           2             4    7     1      -0.7130589464E-01       5    8    1        -0.3868574212E+01      0.9433895469E+01
          0                 3           2             4    7     1       0.4854990628E-02       5    8    1         0.2707249745E+00      0.6602212873E+00
          0                 4           2             4    7     1      -0.1931847538E-03       5    8    1        -0.1106995432E-01      0.2699948697E-01
          0                 5           1             4    7     1       0.2382051492E-05       5    8    1         0.1401026989E-03      0.3423489295E-03

    ------------------------------------------------
       NWT REQUIRED            5 OUTER ITERATIONS 
       AND A TOTAL OF          9 INNER ITERATIONS.
    ------------------------------------------------

 NO OUTPUT CONTROL FOR STRESS PERIOD   19   TIME STEP    6
 
 SOLVING FOR HEAD 
                                                   Max.-Head-Change                         Max.-Flux-Residual
  Residual-Control   Outer-Iter.   Inner-Iter.     Column Row Layer    Maximum-Head-Change  Column Row Layer    Maximum-Flux-Residual          L2-NORM 
          0                 1           2             5    8     1       0.2391078087E-01       5    8    1         0.1294943375E+01      0.2878357500E+01
          0                 2           2             4    7     1      -0.7134989426E-01       5    8    1        -0.3874460157E+01      0.9444785591E+01
          0                 3           2             4    7     1       0.4857987042E-02       5    8    1         0.2711392053E+00      0.6609863670E+00
          0                 4           2             4    7     1      -0.1933039829E-03       5    8    1        -0.1108711546E-01      0.2703080423E-01
          0                 5           1             4    7     1       0.2383521910E-05       5    8    1         0.1403350507E-03      0.3426723972E-03

    ------------------------------------------------
       NWT REQUIRED            5 OUTER ITERATIONS 
       AND A TOTAL OF          9 INNER ITERATIONS.
    ------------------------------------------------

 NO OUTPUT CONTROL FOR STRESS PERIOD   19   TIME STEP    7
 
 SOLVING FOR HEAD 
                                                   Max.-Head-Change                         Max.-Flux-Residual
  Residual-Control   Outer-Iter.   Inner-Iter.     Column Row Layer    Maximum-Head-Change  Column Row Layer    Maximum-Flux-Residual          L2-NORM 
          0                 1           2             5    8     1       0.2493194383E-01       5    8    1         0.1350801689E+01      0.2998354638E+01
          0                 2           2             4    7     1      -0.7139486760E-01       5    8    1        -0.3880046131E+01      0.9455333793E+01
          0                 3           2             4    7     1       0.4861049743E-02       5    8    1         0.2715322904E+00      0.6617277329E+00
          0                 4           2             4    7     1      -0.1934258494E-03       5    8    1        -0.1110339714E-01      0.2706120819E-01
          0                 5           1             4    7     1       0.2385024477E-05       5    8    1         0.1405552521E-03      0.3430006936E-03

    ------------------------------------------------
       NWT REQUIRED            5 OUTER ITERATIONS 
       AND A TOTAL OF          9 INNER ITERATIONS.
    ------------------------------------------------

 NO OUTPUT CONTROL FOR STRESS PERIOD   19   TIME STEP    8
 
 SOLVING FOR HEAD 
                                                   Max.-Head-Change                         Max.-Flux-Residual
  Residual-Control   Outer-Iter.   Inner-Iter.     Column Row Layer    Maximum-Head-Change  Column Row Layer    Maximum-Flux-Residual          L2-NORM 
          0                 1           2             5    8     1       0.2590271626E-01       5    8    1         0.1403857529E+01      0.3115006441E+01
          0                 2           2             4    7     1      -0.7144068644E-01       5    8    1        -0.3885351855E+01      0.9465555413E+01
          0                 3           2             4    7     1       0.4864170002E-02       5    8    1         0.2719056208E+00      0.6624464044E+00
          0                 4           2             4    7     1      -0.1935500064E-03       5    8    1        -0.1111885730E-01      0.2709073167E-01
          0                 5           1             4    7     1       0.2386555272E-05       5    8    1         0.1407641389E-03      0.3433296964E-03

    ------------------------------------------------
       NWT REQUIRED            5 OUTER ITERATIONS 
       AND A TOTAL OF          9 INNER ITERATIONS.
    ------------------------------------------------

 NO OUTPUT CONTROL FOR STRESS PERIOD   19   TIME STEP    9
 
 SOLVING FOR HEAD 
                                                   Max.-Head-Change                         Max.-Flux-Residual
  Residual-Control   Outer-Iter.   Inner-Iter.     Column Row Layer    Maximum-Head-Change  Column Row Layer    Maximum-Flux-Residual          L2-NORM 
          0                 1           2             5    8     1       0.2682634114E-01       5    8    1         0.1454293027E+01      0.3228140503E+01
          0                 2           2             4    7     1      -0.7148724425E-01       5    8    1        -0.3890395541E+01      0.9475462634E+01
          0                 3           2             4    7     1       0.4867340564E-02       5    8    1         0.2722604811E+00      0.6631431971E+00
          0                 4           2             4    7     1      -0.1936761656E-03       5    8    1        -0.1113354943E-01      0.2711940289E-01
          0                 5           1             4    7     1       0.2388110934E-05       5    8    1         0.1409624242E-03      0.3436595798E-03

    ------------------------------------------------
       NWT REQUIRED            5 OUTER ITERATIONS 
       AND A TOTAL OF          9 INNER ITERATIONS.
    ------------------------------------------------

 NO OUTPUT CONTROL FOR STRESS PERIOD   19   TIME STEP   10
 
 SOLVING FOR HEAD 
                                                   Max.-Head-Change                         Max.-Flux-Residual
  Residual-Control   Outer-Iter.   Inner-Iter.     Column Row Layer    Maximum-Head-Change  Column Row Layer    Maximum-Flux-Residual          L2-NORM 
          0                 1           2             5    8     1       0.2770594676E-01       5    8    1         0.1502284189E+01      0.3337722470E+01
          0                 2           2             4    7     1      -0.7153440219E-01       5    8    1        -0.3895194790E+01      0.9485068983E+01
          0                 3           2             4    7     1       0.4870551975E-02       5    8    1         0.2725981133E+00      0.6638190096E+00
          0                 4           2             4    7     1      -0.1938039498E-03       5    8    1        -0.1114752530E-01      0.2714724634E-01
          0                 5           1             4    7     1       0.2389686647E-05       5    8    1         0.1411508533E-03      0.3439874986E-03

    ------------------------------------------------
       NWT REQUIRED            5 OUTER ITERATIONS 
       AND A TOTAL OF          9 INNER ITERATIONS.
    ------------------------------------------------

 NO OUTPUT CONTROL FOR STRESS PERIOD   19   TIME STEP   11
 
 SOLVING FOR HEAD 
                                                   Max.-Head-Change                         Max.-Flux-Residual
  Residual-Control   Outer-Iter.   Inner-Iter.     Column Row Layer    Maximum-Head-Change  Column Row Layer    Maximum-Flux-Residual          L2-NORM 
          0                 1           2             5    8     1       0.2854443293E-01       5    8    1         0.1547993200E+01      0.3443775355E+01
          0                 2           2             4    7     1      -0.7158207040E-01       5    8    1        -0.3899765820E+01      0.9494387058E+01
          0                 3           2             4    7     1       0.4873798120E-02       5    8    1         0.2729196607E+00      0.6644746950E+00
          0                 4           2             4    7     1      -0.1939331167E-03       5    8    1        -0.1116083251E-01      0.2717429316E-01
          0                 5           1             4    7     1       0.2391279274E-05       5    8    1         0.1413300752E-03      0.3443135279E-03

    ------------------------------------------------
       NWT REQUIRED            5 OUTER ITERATIONS 
       AND A TOTAL OF          9 INNER ITERATIONS.
    ------------------------------------------------

 NO OUTPUT CONTROL FOR STRESS PERIOD   19   TIME STEP   12
 
 SOLVING FOR HEAD 
                                                   Max.-Head-Change                         Max.-Flux-Residual
  Residual-Control   Outer-Iter.   Inner-Iter.     Column Row Layer    Maximum-Head-Change  Column Row Layer    Maximum-Flux-Residual          L2-NORM 
          0                 1           2             5    8     1       0.2934405269E-01       5    8    1         0.1591546779E+01      0.3546349032E+01
          0                 2           2             4    7     1      -0.7163016502E-01       5    8    1        -0.3904121302E+01      0.9503427490E+01
          0                 3           2             4    7     1       0.4877073287E-02       5    8    1         0.2732260176E+00      0.6651109678E+00
          0                 4           2             4    7     1      -0.1940634378E-03       5    8    1        -0.1117350831E-01      0.2720056654E-01
          0                 5           1             4    7     1       0.2392886127E-05       5    8    1         0.1415006141E-03      0.3446393155E-03

    ------------------------------------------------
       NWT REQUIRED            5 OUTER ITERATIONS 
       AND A TOTAL OF          9 INNER ITERATIONS.
    ------------------------------------------------

 NO OUTPUT CONTROL FOR STRESS PERIOD   19   TIME STEP   13
 
 SOLVING FOR HEAD 
                                                   Max.-Head-Change                         Max.-Flux-Residual
  Residual-Control   Outer-Iter.   Inner-Iter.     Column Row Layer    Maximum-Head-Change  Column Row Layer    Maximum-Flux-Residual          L2-NORM 
          0                 1           2             5    8     1       0.3010760183E-01       5    8    1         0.1633101101E+01      0.3645560988E+01
          0                 2           2             4    7     1      -0.7167858298E-01       5    8    1        -0.3908276855E+01      0.9512203447E+01
          0                 3           2             4    7     1       0.4880373038E-02       5    8    1         0.2741030081E+00      0.6659720431E+00
          0                 4           2             4    7     1      -0.1941947270E-03       5    8    1        -0.1120955193E-01      0.2723602014E-01
          0                 5           1             4    7     1       0.2394505189E-05       5    8    1         0.1419724153E-03      0.3450778788E-03

    ------------------------------------------------
       NWT REQUIRED            5 OUTER ITERATIONS 
       AND A TOTAL OF          9 INNER ITERATIONS.
    ------------------------------------------------

 NO OUTPUT CONTROL FOR STRESS PERIOD   19   TIME STEP   14
 
 SOLVING FOR HEAD 
                                                   Max.-Head-Change                         Max.-Flux-Residual
  Residual-Control   Outer-Iter.   Inner-Iter.     Column Row Layer    Maximum-Head-Change  Column Row Layer    Maximum-Flux-Residual          L2-NORM 
          0                 1           2             5    8     1       0.3080494874E-01       5    8    1         0.1673053904E+01      0.3741682172E+01
          0                 2           2             4    7     1      -0.7172722555E-01       5    6    1        -0.3910700502E+01      0.9519911166E+01
          0                 3           2             4    7     1       0.4883699560E-02       5    8    1         0.2759176413E+00      0.6672164274E+00
          0                 4           2             4    7     1      -0.1943270916E-03       5    8    1        -0.1128458085E-01      0.2728765608E-01
          0                 5           1             4    7     1       0.2396136685E-05       5    8    1         0.1429792146E-03      0.3457531798E-03

    ------------------------------------------------
       NWT REQUIRED            5 OUTER ITERATIONS 
       AND A TOTAL OF          9 INNER ITERATIONS.
    ------------------------------------------------

 NO OUTPUT CONTROL FOR STRESS PERIOD   19   TIME STEP   15
 
 SOLVING FOR HEAD 
                                                   Max.-Head-Change                         Max.-Flux-Residual
  Residual-Control   Outer-Iter.   Inner-Iter.     Column Row Layer    Maximum-Head-Change  Column Row Layer    Maximum-Flux-Residual          L2-NORM 
          0                 1           2             5    8     1       0.3152887470E-01       5    8    1         0.1712489079E+01      0.3835373849E+01
          0                 2           2             4    7     1      -0.7177607552E-01       5    8    1        -0.3915834462E+01      0.9528920309E+01
          0                 3           2             5    8     1       0.4904197975E-02       5    8    1         0.2779306607E+00      0.6685402372E+00
          0                 4           2             5    8     1      -0.1951427396E-03       5    8    1        -0.1136874806E-01      0.2734412726E-01
          0                 5           1             5    8     1       0.2406194497E-05       5    8    1         0.1442223434E-03      0.3468816361E-03

    ------------------------------------------------
       NWT REQUIRED            5 OUTER ITERATIONS 
       AND A TOTAL OF          9 INNER ITERATIONS.
    ------------------------------------------------

 NO OUTPUT CONTROL FOR STRESS PERIOD   19   TIME STEP   16
 
 SOLVING FOR HEAD 
                                                   Max.-Head-Change                         Max.-Flux-Residual
  Residual-Control   Outer-Iter.   Inner-Iter.     Column Row Layer    Maximum-Head-Change  Column Row Layer    Maximum-Flux-Residual          L2-NORM 
          0                 1           2             5    8     1       0.3221995692E-01       5    8    1         0.1750102121E+01      0.3925983494E+01
          0                 2           2             4    7     1      -0.7182499172E-01       5    8    1        -0.3919974075E+01      0.9537181622E+01
          0                 3           2             4    7     1       0.4890342758E-02       5    8    1         0.2743486701E+00      0.6674941539E+00
          0                 4           2             4    7     1      -0.1945914302E-03       5    8    1        -0.1121967127E-01      0.2729899492E-01
          0                 5           1             4    7     1       0.2399396317E-05       5    8    1         0.1421055454E-03      0.3458981014E-03

    ------------------------------------------------
       NWT REQUIRED            5 OUTER ITERATIONS 
       AND A TOTAL OF          9 INNER ITERATIONS.
    ------------------------------------------------

 NO OUTPUT CONTROL FOR STRESS PERIOD   19   TIME STEP   17
 
 SOLVING FOR HEAD 
                                                   Max.-Head-Change                         Max.-Flux-Residual
  Residual-Control   Outer-Iter.   Inner-Iter.     Column Row Layer    Maximum-Head-Change  Column Row Layer    Maximum-Flux-Residual          L2-NORM 
          0                 1           2             5    8     1       0.3288032067E-01       5    8    1         0.1786012213E+01      0.4013622038E+01
          0                 2           2             4    7     1      -0.7187396535E-01       5    8    1        -0.3923565051E+01      0.9545055386E+01
          0                 3           2             4    7     1       0.4893677728E-02       5    8    1         0.2746012047E+00      0.6680482111E+00
          0                 4           2             4    7     1      -0.1947241317E-03       5    8    1        -0.1123011285E-01      0.2732190673E-01
          0                 5           1             4    7     1       0.2401032966E-05       5    8    1         0.1422455416E-03      0.3461963077E-03

    ------------------------------------------------
       NWT REQUIRED            5 OUTER ITERATIONS 
       AND A TOTAL OF          9 INNER ITERATIONS.
    ------------------------------------------------

 NO OUTPUT CONTROL FOR STRESS PERIOD   19   TIME STEP   18
 
 SOLVING FOR HEAD 
                                                   Max.-Head-Change                         Max.-Flux-Residual
  Residual-Control   Outer-Iter.   Inner-Iter.     Column Row Layer    Maximum-Head-Change  Column Row Layer    Maximum-Flux-Residual          L2-NORM 
          0                 1           2             5    8     1       0.3351207773E-01       5    8    1         0.1820337393E+01      0.4098432602E+01
          0                 2           2             4    7     1      -0.7192290874E-01       5    8    1        -0.3926997536E+01      0.9552710099E+01
          0                 3           2             4    7     1       0.4897010629E-02       5    8    1         0.2748425688E+00      0.6685861787E+00
          0                 4           2             4    7     1      -0.1948567504E-03       5    8    1        -0.1124009016E-01      0.2734409379E-01
          0                 5           1             4    7     1       0.2402667710E-05       5    8    1         0.1423791541E-03      0.3464835149E-03

    ------------------------------------------------
       NWT REQUIRED            5 OUTER ITERATIONS 
       AND A TOTAL OF          9 INNER ITERATIONS.
    ------------------------------------------------

 NO OUTPUT CONTROL FOR STRESS PERIOD   19   TIME STEP   19
 
 SOLVING FOR HEAD 
                                                   Max.-Head-Change                         Max.-Flux-Residual
  Residual-Control   Outer-Iter.   Inner-Iter.     Column Row Layer    Maximum-Head-Change  Column Row Layer    Maximum-Flux-Residual          L2-NORM 
          0                 1           2             5    8     1       0.3411661388E-01       5    8    1         0.1853155687E+01      0.4180522599E+01
          0                 2           2             4    7     1      -0.7197177981E-01       5    8    1        -0.3930279333E+01      0.9560152693E+01
          0                 3           2             4    7     1       0.4900338598E-02       5    8    1         0.2750733136E+00      0.6691089660E+00
          0                 4           2             4    7     1      -0.1949891736E-03       5    8    1        -0.1124962626E-01      0.2736563253E-01
          0                 5           1             4    7     1       0.2404301110E-05       5    8    1         0.1425067035E-03      0.3467634908E-03

    ------------------------------------------------
       NWT REQUIRED            5 OUTER ITERATIONS 
       AND A TOTAL OF          9 INNER ITERATIONS.
    ------------------------------------------------

 NO OUTPUT CONTROL FOR STRESS PERIOD   19   TIME STEP   20
 
 SOLVING FOR HEAD 
                                                   Max.-Head-Change                         Max.-Flux-Residual
  Residual-Control   Outer-Iter.   Inner-Iter.     Column Row Layer    Maximum-Head-Change  Column Row Layer    Maximum-Flux-Residual          L2-NORM 
          0                 1           2             5    8     1       0.3469592505E-01       5    8    1         0.1884578294E+01      0.4260011984E+01
          0                 2           2             4    7     1      -0.7202051387E-01       5    8    1        -0.3933421561E+01      0.9567392076E+01
          0                 3           2             4    7     1       0.4903657228E-02       5    8    1         0.2752942215E+00      0.6696172447E+00
          0                 4           2             4    7     1      -0.1951212247E-03       5    8    1        -0.1125875350E-01      0.2738655484E-01
          0                 5           1             4    7     1       0.2405929246E-05       5    8    1         0.1426286185E-03      0.3470321505E-03

    ------------------------------------------------
       NWT REQUIRED            5 OUTER ITERATIONS 
       AND A TOTAL OF          9 INNER ITERATIONS.
    ------------------------------------------------

 NO OUTPUT CONTROL FOR STRESS PERIOD   19   TIME STEP   21
 
 SOLVING FOR HEAD 
                                                   Max.-Head-Change                         Max.-Flux-Residual
  Residual-Control   Outer-Iter.   Inner-Iter.     Column Row Layer    Maximum-Head-Change  Column Row Layer    Maximum-Flux-Residual          L2-NORM 
          0                 1           2             5    8     1       0.3525143245E-01       5    8    1         0.1914685093E+01      0.4337019639E+01
          0                 2           2             4    7     1      -0.7206907800E-01       5    8    1        -0.3936432209E+01      0.9574436734E+01
          0                 3           2             4    7     1       0.4906964279E-02       5    8    1         0.2755058574E+00      0.6701116001E+00
          0                 4           2             4    7     1      -0.1952528154E-03       5    8    1        -0.1126749553E-01      0.2740688104E-01
          0                 5           1             4    7     1       0.2407551669E-05       5    8    1         0.1427452580E-03      0.3472941794E-03

    ------------------------------------------------
       NWT REQUIRED            5 OUTER ITERATIONS 
       AND A TOTAL OF          9 INNER ITERATIONS.
    ------------------------------------------------

 NO OUTPUT CONTROL FOR STRESS PERIOD   19   TIME STEP   22
 
 SOLVING FOR HEAD 
                                                   Max.-Head-Change                         Max.-Flux-Residual
  Residual-Control   Outer-Iter.   Inner-Iter.     Column Row Layer    Maximum-Head-Change  Column Row Layer    Maximum-Flux-Residual          L2-NORM 
          0                 1           2             5    8     1       0.3578431198E-01       5    8    1         0.1943541909E+01      0.4411640062E+01
          0                 2           2             4    7     1      -0.7211741571E-01       5    8    1        -0.3939317859E+01      0.9581292541E+01
          0                 3           2             4    7     1       0.4910255903E-02       5    8    1         0.2757086855E+00      0.6705926841E+00
          0                 4           2             4    7     1      -0.1953837922E-03       5    8    1        -0.1127587170E-01      0.2742666229E-01
          0                 5           1             4    7     1       0.2409166587E-05       5    8    1         0.1428568830E-03      0.3475484422E-03

    ------------------------------------------------
       NWT REQUIRED            5 OUTER ITERATIONS 
       AND A TOTAL OF          9 INNER ITERATIONS.
    ------------------------------------------------

 NO OUTPUT CONTROL FOR STRESS PERIOD   19   TIME STEP   23
 
 SOLVING FOR HEAD 
                                                   Max.-Head-Change                         Max.-Flux-Residual
  Residual-Control   Outer-Iter.   Inner-Iter.     Column Row Layer    Maximum-Head-Change  Column Row Layer    Maximum-Flux-Residual          L2-NORM 
          0                 1           2             5    8     1       0.3629622304E-01       5    8    1         0.1971241182E+01      0.4484004410E+01
          0                 2           2             4    7     1      -0.7216550153E-01       5    8    1        -0.3942087755E+01      0.9587968959E+01
          0                 3           2             4    7     1       0.4913530369E-02       5    8    1         0.2759033568E+00      0.6710611598E+00
          0                 4           2             4    7     1      -0.1955140862E-03       5    8    1        -0.1128390904E-01      0.2744592527E-01
          0                 5           1             4    7     1       0.2410773104E-05       5    8    1         0.1429638487E-03      0.3478002481E-03

    ------------------------------------------------
       NWT REQUIRED            5 OUTER ITERATIONS 
       AND A TOTAL OF          9 INNER ITERATIONS.
    ------------------------------------------------

 NO OUTPUT CONTROL FOR STRESS PERIOD   19   TIME STEP   24
 
 SOLVING FOR HEAD 
                                                   Max.-Head-Change                         Max.-Flux-Residual
  Residual-Control   Outer-Iter.   Inner-Iter.     Column Row Layer    Maximum-Head-Change  Column Row Layer    Maximum-Flux-Residual          L2-NORM 
          0                 1           2             5    8     1       0.3678814101E-01       5    8    1         0.1997837482E+01      0.4554187326E+01
          0                 2           2             4    7     1      -0.7221327370E-01       5    8    1        -0.3944747354E+01      0.9594471179E+01
          0                 3           2             4    7     1       0.4916783470E-02       5    8    1         0.2760902570E+00      0.6715173898E+00
          0                 4           2             4    7     1      -0.1956435302E-03       5    8    1        -0.1129162364E-01      0.2746468335E-01
          0                 5           1             4    7     1       0.2412369427E-05       5    8    1         0.1430663965E-03      0.3480402053E-03

    ------------------------------------------------
       NWT REQUIRED            5 OUTER ITERATIONS 
       AND A TOTAL OF          9 INNER ITERATIONS.
    ------------------------------------------------

 NO OUTPUT CONTROL FOR STRESS PERIOD   19   TIME STEP   25
 
 SOLVING FOR HEAD 
                                                   Max.-Head-Change                         Max.-Flux-Residual
  Residual-Control   Outer-Iter.   Inner-Iter.     Column Row Layer    Maximum-Head-Change  Column Row Layer    Maximum-Flux-Residual          L2-NORM 
          0                 1           2             5    8     1       0.3726139505E-01       5    8    1         0.2023404983E+01      0.4622292516E+01
          0                 2           2             4    7     1      -0.7226074016E-01       5    8    1        -0.3947304073E+01      0.9600806455E+01
          0                 3           2             4    7     1       0.4920015747E-02       5    8    1         0.2762699085E+00      0.6719617667E+00
          0                 4           2             4    7     1      -0.1957721455E-03       5    8    1        -0.1129903730E-01      0.2748294185E-01
          0                 5           1             4    7     1       0.2413955445E-05       5    8    1         0.1431648343E-03      0.3482766490E-03

    ------------------------------------------------
       NWT REQUIRED            5 OUTER ITERATIONS 
       AND A TOTAL OF          9 INNER ITERATIONS.
    ------------------------------------------------

 NO OUTPUT CONTROL FOR STRESS PERIOD   19   TIME STEP   26
 
 SOLVING FOR HEAD 
                                                   Max.-Head-Change                         Max.-Flux-Residual
  Residual-Control   Outer-Iter.   Inner-Iter.     Column Row Layer    Maximum-Head-Change  Column Row Layer    Maximum-Flux-Residual          L2-NORM 
          0                 1           2             5    8     1       0.3771679939E-01       5    8    1         0.2047989004E+01      0.4688398712E+01
          0                 2           2             4    7     1      -0.7230783147E-01       5    8    1        -0.3949762446E+01      0.9606980041E+01
          0                 3           2             4    7     1       0.4923222474E-02       5    8    1         0.2764423182E+00      0.6723943834E+00
          0                 4           2             4    7     1      -0.1958997445E-03       5    8    1        -0.1130611968E-01      0.2750067758E-01
          0                 5           1             4    7     1       0.2415528918E-05       5    8    1         0.1432566837E-03      0.3485036039E-03

    ------------------------------------------------
       NWT REQUIRED            5 OUTER ITERATIONS 
       AND A TOTAL OF          9 INNER ITERATIONS.
    ------------------------------------------------

 NO OUTPUT CONTROL FOR STRESS PERIOD   19   TIME STEP   27
 
 SOLVING FOR HEAD 
                                                   Max.-Head-Change                         Max.-Flux-Residual
  Residual-Control   Outer-Iter.   Inner-Iter.     Column Row Layer    Maximum-Head-Change  Column Row Layer    Maximum-Flux-Residual          L2-NORM 
          0                 1           2             5    8     1       0.3815567437E-01       5    8    1         0.2071663225E+01      0.4752607208E+01
          0                 2           2             4    7     1      -0.7235454883E-01       5    8    1        -0.3952129838E+01      0.9612999479E+01
          0                 3           2             4    7     1       0.4926403729E-02       5    8    1         0.2766083362E+00      0.6728161838E+00
          0                 4           2             4    7     1      -0.1960263294E-03       5    8    1        -0.1131293869E-01      0.2751796931E-01
          0                 5           1             4    7     1       0.2417089508E-05       5    8    1         0.1433450561E-03      0.3487253310E-03

    ------------------------------------------------
       NWT REQUIRED            5 OUTER ITERATIONS 
       AND A TOTAL OF          9 INNER ITERATIONS.
    ------------------------------------------------

 NO OUTPUT CONTROL FOR STRESS PERIOD   19   TIME STEP   28
 
 SOLVING FOR HEAD 
                                                   Max.-Head-Change                         Max.-Flux-Residual
  Residual-Control   Outer-Iter.   Inner-Iter.     Column Row Layer    Maximum-Head-Change  Column Row Layer    Maximum-Flux-Residual          L2-NORM 
          0                 1           2             5    8     1       0.3857807426E-01       5    8    1         0.2094464645E+01      0.4816735477E+01
          0                 2           2             4    7     1      -0.7240085386E-01       5    8    1        -0.3954409946E+01      0.9618877002E+01
          0                 3           2             4    7     1       0.4929556904E-02       5    8    1         0.2767682251E+00      0.6732278387E+00
          0                 4           2             4    7     1      -0.1961517979E-03       5    8    1        -0.1131950513E-01      0.2753482548E-01
          0                 5           1             4    7     1       0.2418636769E-05       5    8    1         0.1434300993E-03      0.3489392475E-03

    ------------------------------------------------
       NWT REQUIRED            5 OUTER ITERATIONS 
       AND A TOTAL OF          9 INNER ITERATIONS.
    ------------------------------------------------

 NO OUTPUT CONTROL FOR STRESS PERIOD   19   TIME STEP   29
 
 SOLVING FOR HEAD 
                                                   Max.-Head-Change                         Max.-Flux-Residual
  Residual-Control   Outer-Iter.   Inner-Iter.     Column Row Layer    Maximum-Head-Change  Column Row Layer    Maximum-Flux-Residual          L2-NORM 
          0                 1           2             5    8     1       0.3898476825E-01       5    8    1         0.2116411808E+01      0.4880587737E+01
          0                 2           2             4    7     1      -0.7244672518E-01       5    8    1        -0.3956604628E+01      0.9624614659E+01
          0                 3           2             4    7     1       0.4932680539E-02       5    8    1         0.2769221165E+00      0.6736296194E+00
          0                 4           2             4    7     1      -0.1962760900E-03       5    8    1        -0.1132582455E-01      0.2755127337E-01
          0                 5           1             4    7     1       0.2420169020E-05       5    8    1         0.1435119038E-03      0.3491476890E-03

    ------------------------------------------------
       NWT REQUIRED            5 OUTER ITERATIONS 
       AND A TOTAL OF          9 INNER ITERATIONS.
    ------------------------------------------------

 NO OUTPUT CONTROL FOR STRESS PERIOD   19   TIME STEP   30



 STREAM LISTING     PERIOD     19   STEP       30

 LAYER ROW COL. STREAM  RCH.  FLOW INTO     FLOW TO   FLOW OUT OF   OVRLND.     DIRECT     STREAM       STREAM     STREAM     STREAM   STREAMBED  STREAMBED
                SEG.NO.  NO.  STRM. RCH.    AQUIFER    STRM. RCH.    RUNOFF     PRECIP       ET          HEAD       DEPTH      WIDTH   CONDCTNC.   GRADIENT

   1    1    1     1     1    5.4001E+01  3.5066E-01   5.3650E+01  0.000E+00  0.000E+00  0.000E+00  1.09450E+03  1.450E+00  1.751E+01  7.879E-02  1.483E+00
   1    2    2     1     2    5.3650E+01  5.4294E-01   5.3107E+01  0.000E+00  0.000E+00  0.000E+00  1.08950E+03  1.445E+00  1.745E+01  1.222E-01  1.482E+00
   1    3    3     1     3    5.3107E+01  4.6294E-01   5.2644E+01  0.000E+00  0.000E+00  0.000E+00  1.08386E+03  1.438E+00  1.739E+01  1.043E-01  1.479E+00
   1    3    4     1     4    5.2644E+01  4.2621E-01   5.2218E+01  0.000E+00  0.000E+00  0.000E+00  1.07884E+03  1.432E+00  1.733E+01  9.616E-02  1.477E+00
   1    4    5     2     1    5.0218E+01  3.7682E-01   4.9841E+01  0.000E+00  0.000E+00  0.000E+00  1.07376E+03  1.831E+00  1.200E+01  7.800E-02  1.610E+00
   1    5    6     2     2    4.9841E+01  2.8942E-01   4.9552E+01  0.000E+00  0.000E+00  0.000E+00  1.06833E+03  1.824E+00  1.200E+01  6.000E-02  1.608E+00
   1    6    6     2     3    4.9552E+01  2.8904E-01   4.9263E+01  0.000E+00  0.000E+00  0.000E+00  1.06361E+03  1.817E+00  1.200E+01  6.000E-02  1.606E+00
   1    7    6     2     4    4.9263E+01  2.8865E-01   4.8974E+01  0.000E+00  0.000E+00  0.000E+00  1.05889E+03  1.811E+00  1.200E+01  6.000E-02  1.604E+00
   1    8    6     2     5    4.8974E+01  2.8827E-01   4.8686E+01  0.000E+00  0.000E+00  0.000E+00  1.05416E+03  1.804E+00  1.200E+01  6.000E-02  1.601E+00
   1    3    5     3     1    2.0000E+00  2.8252E-01   1.7175E+00  0.000E+00  0.000E+00  0.000E+00  1.07555E+03  1.909E+00  9.636E+00  7.227E-02  1.955E+00
   1    3    6     3     2    1.7175E+00  2.4905E-01   1.4684E+00  0.000E+00  0.000E+00  0.000E+00  1.07264E+03  1.727E+00  8.909E+00  6.682E-02  1.864E+00
   1    3    7     3     3    1.4684E+00  1.9718E-01   1.2712E+00  0.000E+00  0.000E+00  0.000E+00  1.06987E+03  1.555E+00  8.218E+00  5.547E-02  1.777E+00
   1    4    8     3     4    1.2712E+00  2.2567E-01   1.0456E+00  0.000E+00  0.000E+00  0.000E+00  1.06682E+03  1.364E+00  7.455E+00  6.709E-02  1.682E+00
   1    5    8     3     5    1.0456E+00  1.5790E-01   8.8768E-01  0.000E+00  0.000E+00  0.000E+00  1.06362E+03  1.164E+00  6.655E+00  4.991E-02  1.582E+00
   1    6    8     3     6    8.8768E-01  5.5980E-02   8.3170E-01  0.000E+00  0.000E+00  0.000E+00  1.06158E+03  1.036E+00  6.145E+00  1.844E-02  1.518E+00
   1    5   10     4     1    1.0000E+01  9.0919E-02   9.9091E+00  0.000E+00  0.000E+00  0.000E+00  1.07836E+03  6.368E-01  1.000E+01  2.500E-02  1.212E+00
   1    5    9     4     2    9.9091E+00  1.8158E-01   9.7275E+00  0.000E+00  0.000E+00  0.000E+00  1.07154E+03  6.315E-01  1.000E+01  5.000E-02  1.211E+00
   1    6    8     4     3    9.7275E+00  1.2689E-01   9.6006E+00  0.000E+00  0.000E+00  0.000E+00  1.06381E+03  6.256E-01  1.000E+01  3.500E-02  1.209E+00
   1    6    8     5     1    1.0432E+01  2.2686E-01   1.0205E+01  0.000E+00  0.000E+00  0.000E+00  1.05868E+03  6.790E-01  1.542E+01  6.166E-02  1.226E+00
   1    7    7     5     2    1.0205E+01  2.7894E-01   9.9265E+00  0.000E+00  0.000E+00  0.000E+00  1.05417E+03  6.732E-01  1.519E+01  7.594E-02  1.224E+00
   1    8    7     5     3    9.9265E+00  1.9221E-01   9.7343E+00  0.000E+00  0.000E+00  0.000E+00  1.04992E+03  6.676E-01  1.497E+01  5.241E-02  1.223E+00
   1    8    6     5     4    9.7343E+00  1.3577E-01   9.5985E+00  0.000E+00  0.000E+00  0.000E+00  1.04691E+03  6.637E-01  1.482E+01  3.706E-02  1.221E+00
   1    9    6     6     1    5.8284E+01  3.0156E-01   5.7983E+01  0.000E+00  0.000E+00  0.000E+00  1.04475E+03  2.026E+00  1.200E+01  6.000E-02  1.675E+00
   1   10    7     6     2    5.7983E+01  3.0118E-01   5.7682E+01  0.000E+00  0.000E+00  0.000E+00  1.04020E+03  2.020E+00  1.200E+01  6.000E-02  1.673E+00
   1   11    7     6     3    5.7682E+01  3.0080E-01   5.7381E+01  0.000E+00  0.000E+00  0.000E+00  1.03565E+03  2.013E+00  1.200E+01  6.000E-02  1.671E+00
   1   12    7     6     4    5.7381E+01  3.0042E-01   5.7080E+01  0.000E+00  0.000E+00  0.000E+00  1.03110E+03  2.007E+00  1.200E+01  6.000E-02  1.669E+00
   1   13    7     6     5    5.7080E+01  1.9638E-02   5.7061E+01  0.000E+00  0.000E+00  0.000E+00  1.02791E+03  2.004E+00  1.200E+01  2.400E-02  2.727E-01
   1   14    9     7     1    1.5000E+02  1.3319E+00   1.4867E+02  0.000E+00  0.000E+00  0.000E+00  1.03987E+03  2.288E+00  5.529E+01  5.593E-01  7.938E-01
   1   13    8     7     2    1.4867E+02  1.8269E+00   1.4684E+02  0.000E+00  0.000E+00  0.000E+00  1.03478E+03  2.279E+00  5.526E+01  6.148E-01  9.905E-01
   1   13    7     7     3    1.4684E+02  1.4494E+00   1.4539E+02  0.000E+00  0.000E+00  0.000E+00  1.02969E+03  2.271E+00  5.522E+01  5.585E-01  8.651E-01
   1   13    6     8     1    2.0245E+02  1.0302E+00   2.0142E+02  0.000E+00  0.000E+00  0.000E+00  1.02502E+03  3.149E+00  4.566E+01  4.653E-01  7.380E-01
   1   13    5     8     2    2.0142E+02  2.3531E-01   2.0119E+02  0.000E+00  0.000E+00  0.000E+00  1.01877E+03  3.145E+00  4.561E+01  4.648E-01  1.688E-01
   1   13    4     8     3    2.0119E+02 -2.2664E+00   2.0345E+02  0.000E+00  0.000E+00  0.000E+00  1.01253E+03  3.151E+00  4.569E+01  4.656E+00 -1.622E-01
   1   13    3     8     4    2.0345E+02 -3.4612E+00   2.0691E+02  0.000E+00  0.000E+00  0.000E+00  1.00629E+03  3.168E+00  4.594E+01  4.681E+00 -2.465E-01
   1   13    2     8     5    2.0691E+02 -2.6099E+00   2.0952E+02  0.000E+00  0.000E+00  0.000E+00  1.00006E+03  3.185E+00  4.619E+01  4.707E+00 -1.848E-01
   1   13    1     8     6    2.0952E+02 -2.0315E+00   2.1156E+02  0.000E+00  0.000E+00  0.000E+00  9.95074E+02  3.199E+00  4.638E+01  2.836E+00 -2.388E-01





UNSATURATED ZONE PACKAGE VOLUMETRIC BUDGET FOR  TIME STEP    30 STRESS PERIOD   19
  ------------------------------------------------------------------------------



     CUMULATIVE VOLUMES      L**3       RATES FOR THIS TIME STEP      L**3/T
     ------------------                 ------------------------

           IN:                                      IN:
           ---                                      ---
        INFILTRATION =   563770349.2657          INFILTRATION =          23.3175

          OUT:                                     OUT:
          ----                                     ----
              UZF ET =   525761343.4695                UZF ET =          23.3175
        UZF RECHARGE =    37934422.1554          UZF RECHARGE =       0.0000E+00

            IN - OUT =       74583.6408              IN - OUT =       0.0000E+00

          STORAGE:                                 STORAGE:
          --------                                 --------
      STORAGE CHANGE =       74584.2080        STORAGE CHANGE =       1.0640E-11

 PERCENT DISCREPANCY IS DIFFERENCE BETWEEN IN-OUT MINUS CHANGE IN STORAGE
 DIVIDED BY THE AVERAGE OF IN AND OUT TIMES 100

 PERCENT DISCREPANCY =           0.00     PERCENT DISCREPANCY =           0.00






1
  VOLUMETRIC BUDGET FOR AGRICULTURAL FIELDS AT  END OF TIME STEP   30, STRESS PERIOD  19
  ------------------------------------------------------------------------------

     CUMULATIVE VOLUMES      L**3       RATES FOR THIS TIME STEP      L**3/T
     ------------------                 ------------------------

           IN:                                      IN:
           ---                                      ---
               AG WELLS  =   523575744.0000                 AG WELLS  =          22.4700
      DIVERSION SEGMENTS =           0.0000        DIVERSION SEGMENTS =           0.0000
       IRRIGATION PONDS  =           0.0000         IRRIGATION PONDS  =           0.0000
           GW IRRIGATION =           0.0000             GW IRRIGATION =           0.0000
           SW IRRIGATION =           0.0000             SW IRRIGATION =           0.0000
        SYSTEM LOSSES GW =           0.0000          SYSTEM LOSSES GW =           0.0000
        SYSTEM LOSSES SW =           0.0000          SYSTEM LOSSES SW =           0.0000

                TOTAL IN =   523575744.0000                  TOTAL IN =          22.4700

          OUT:                                     OUT:
          ----                                     ----
               AG WELLS  =           0.0000                 AG WELLS  =           0.0000
      DIVERSION SEGMENTS =           0.0000        DIVERSION SEGMENTS =           0.0000
       IRRIGATION PONDS  =           0.0000         IRRIGATION PONDS  =           0.0000
           GW IRRIGATION =   523575744.0000             GW IRRIGATION =          22.4700
           SW IRRIGATION =           0.0000             SW IRRIGATION =           0.0000
        SYSTEM LOSSES GW =           0.0000          SYSTEM LOSSES GW =           0.0000
        SYSTEM LOSSES SW =           0.0000          SYSTEM LOSSES SW =           0.0000

               TOTAL OUT =   523575744.0000                 TOTAL OUT =          22.4700

                IN - OUT =           0.0000                  IN - OUT =           0.0000

     PERCENT DISCREPANCY =           0.00         PERCENT DISCREPANCY =           0.00



1
  VOLUMETRIC BUDGET FOR ENTIRE MODEL AT END OF TIME STEP   30, STRESS PERIOD  19
  ------------------------------------------------------------------------------

     CUMULATIVE VOLUMES      L**3       RATES FOR THIS TIME STEP      L**3/T
     ------------------                 ------------------------

           IN:                                      IN:
           ---                                      ---
             STORAGE     =   677574912.0000               STORAGE     =          20.7452
       CONSTANT HEAD     =           0.0000         CONSTANT HEAD     =           0.0000
     HEAD DEP BOUNDS     =    13536171.0000       HEAD DEP BOUNDS     =           0.2855
      STREAM LEAKAGE     =   595990272.0000        STREAM LEAKAGE     =          12.8137
        UZF RECHARGE     =    37934444.0000          UZF RECHARGE     =           0.0000
               GW ET     =           0.0000                 GW ET     =           0.0000
     SURFACE LEAKAGE     =           0.0000       SURFACE LEAKAGE     =           0.0000
           AG WELLS      =           0.0000             AG WELLS      =           0.0000

                TOTAL IN =  1325035904.0000                  TOTAL IN =          33.8443

          OUT:                                     OUT:
          ----                                     ----
             STORAGE     =   282333440.0000               STORAGE     =           0.3690
       CONSTANT HEAD     =           0.0000         CONSTANT HEAD     =           0.0000
     HEAD DEP BOUNDS     =    13978925.0000       HEAD DEP BOUNDS     =           0.2960
      STREAM LEAKAGE     =   488610496.0000        STREAM LEAKAGE     =          10.3690
        UZF RECHARGE     =           0.0000          UZF RECHARGE     =           0.0000
               GW ET     =    16542180.0000                 GW ET     =           0.3403
     SURFACE LEAKAGE     =           0.0000       SURFACE LEAKAGE     =           0.0000
           AG WELLS      =   523575744.0000             AG WELLS      =          22.4700

               TOTAL OUT =  1325040896.0000                 TOTAL OUT =          33.8443

                IN - OUT =       -4992.0000                  IN - OUT =       1.5259E-05

     PERCENT DISCREPANCY =          -0.00         PERCENT DISCREPANCY =           0.00






         TIME SUMMARY AT END OF TIME STEP   30 IN STRESS PERIOD   19
                    SECONDS     MINUTES      HOURS       DAYS        YEARS
                    -----------------------------------------------------------
   TIME STEP LENGTH  87667.      1461.1      24.352      1.0147     2.77799E-03
 STRESS PERIOD TIME 2.63000E+06  43833.      730.56      30.440     8.33397E-02
         TOTAL TIME 4.74265E+07 7.90442E+05  13174.      548.92      1.5029    
1
1
                            STRESS PERIOD NO.   20, LENGTH =   2630000.    
                            -----------------------------------------------

                              NUMBER OF TIME STEPS =    30

                               MULTIPLIER FOR DELT =     1.000

                            INITIAL TIME STEP SIZE =   87666.66    

 REUSING NON-PARAMETER GHB CELLS FROM LAST STRESS PERIOD

      2 GHB CELLS

 REUSING STREAM SEGMENT DATA FROM LAST STRESS PERIOD



            AREAL INFILTRATION RATE
 READING ON UNIT   19 WITH FORMAT: (FREE)              

            1           2           3           4           5           6           7           8           9          10
 ........................................................................................................................
   1   1.0000E-10  2.0000E-10   0.000       0.000       0.000       0.000       0.000       0.000       0.000       0.000    
   2   2.0000E-10  1.0000E-10  2.0000E-10   0.000       0.000      8.0000E-10  8.0000E-10  5.0000E-10   0.000       0.000    
   3    0.000      5.0000E-10  1.0000E-10  1.0000E-10  8.0000E-10  8.0000E-10  5.0000E-10  5.0000E-10   0.000       0.000    
   4   8.0000E-10  5.0000E-10  1.0000E-10  1.0000E-10  1.0000E-10  1.0000E-10  1.0000E-10  1.0000E-10  2.0000E-10   0.000    
   5   8.0000E-10  5.0000E-10  1.0000E-10  1.0000E-10  1.0000E-10  1.0000E-10  1.0000E-10  1.0000E-10  1.0000E-10  1.0000E-10
   6   8.0000E-10  5.0000E-10  5.0000E-10  2.0000E-10  2.0000E-10  1.0000E-10  1.0000E-10  1.0000E-10  1.0000E-10  5.0000E-10
   7   8.0000E-10  5.0000E-10  5.0000E-10  2.0000E-10  2.0000E-10  1.0000E-10  1.0000E-10  2.0000E-10  2.0000E-10   0.000    
   8    0.000      5.0000E-10  5.0000E-10  2.0000E-10  2.0000E-10  1.0000E-10  1.0000E-10  2.0000E-10  5.0000E-10   0.000    
   9    0.000      5.0000E-10  5.0000E-10  2.0000E-10  2.0000E-10  1.0000E-10  1.0000E-10  2.0000E-10  5.0000E-10   0.000    
  10    0.000      5.0000E-10  5.0000E-10  2.0000E-10  2.0000E-10  1.0000E-10  1.0000E-10  2.0000E-10  5.0000E-10  8.0000E-10
  11    0.000      1.0000E-10  1.0000E-10  1.0000E-10  1.0000E-10  1.0000E-10  1.0000E-10  2.0000E-10  5.0000E-10   0.000    
  12   1.0000E-10  1.0000E-10  1.0000E-10  1.0000E-10  1.0000E-10  1.0000E-10  1.0000E-10  1.0000E-10  2.0000E-10   0.000    
  13   1.0000E-10  1.0000E-10  2.0000E-10  2.0000E-10  2.0000E-10  2.0000E-10  2.0000E-10  1.0000E-10  1.0000E-10   0.000    
  14    0.000      2.0000E-10  5.0000E-10  5.0000E-10  5.0000E-10  5.0000E-10  5.0000E-10  2.0000E-10  1.0000E-10   0.000    
  15    0.000       0.000      8.0000E-10  8.0000E-10  8.0000E-10  8.0000E-10   0.000       0.000       0.000       0.000    

                  ET RATE =  4.000000E-07

 USING ET EXTINCTION DEPTH FROM PREVIOUS STRESS PERIOD. CURRENT PERIOD IS:      20

 USING EXTINCTION WATER CONTENT FROM PREVIOUS STRESS PERIOD. CURRENT PERIOD IS:      20

 USING AIR ENTRY PRESSURE FROM PREVIOUS STRESS PERIOD. CURRENT PERIOD IS:      20

 USING ROOT PRESSURE HEAD FROM PREVIOUS STRESS PERIOD. CURRENT PERIOD IS:      20

 USING ROOT ACTIVITY FROM PREVIOUS STRESS PERIOD. CURRENT PERIOD IS:      20

 PROCESSING AG STRESS PERIOD DATA

 READING AG STRESS PERIOD DATA

 READING IRRIGATION WELL

 NO IRRPOND OR REUSING IRRPOND DATA FROM LAST STRESS PERIOD

 END PROCESSING AG STRESS PERIOD DATA OPTIONS
 
 SOLVING FOR HEAD 
                                                   Max.-Head-Change                         Max.-Flux-Residual
  Residual-Control   Outer-Iter.   Inner-Iter.     Column Row Layer    Maximum-Head-Change  Column Row Layer    Maximum-Flux-Residual          L2-NORM 
          0                 1           2             4    7     1      -0.1635910946E+00       4    7    1        -0.8554208445E+01      0.2004340677E+02
          0                 2           2             6    7     1       0.1324153209E-02       6    7    1         0.7261013007E-01      0.2001203416E+00
          0                 3           2             5    6     1      -0.1202882153E-01       4    7    1        -0.6481793281E+00      0.1580371414E+01
          0                 4           2             4    7     1      -0.9005336695E-02       5    7    1        -0.4981659821E+00      0.1187145481E+01
          0                 5           2             5    6     1       0.8349143091E-03       5    6    1         0.4674638823E-01      0.7718560831E-01
          0                 6           1             5    6     1      -0.5685460867E-04       5    6    1        -0.3310675008E-02      0.4700971307E-02

    ------------------------------------------------
       NWT REQUIRED            6 OUTER ITERATIONS 
       AND A TOTAL OF         11 INNER ITERATIONS.
    ------------------------------------------------

 OUTPUT CONTROL FOR STRESS PERIOD   20   TIME STEP    1
    PRINT BUDGET
    SAVE BUDGET
    SAVE BUDGET
    SAVE HEAD FOR ALL LAYERS
 UBDSV1 SAVING "         STORAGE" ON UNIT 102 AT TIME STEP 1, STRESS PERIOD 20
 UBDSV2 SAVING "   CONSTANT HEAD" ON UNIT 102 AT TIME STEP 1, STRESS PERIOD 20
 UBDSV1 SAVING "FLOW RIGHT FACE " ON UNIT 102 AT TIME STEP 1, STRESS PERIOD 20
 UBDSV1 SAVING "FLOW FRONT FACE " ON UNIT 102 AT TIME STEP 1, STRESS PERIOD 20

  HEAD DEP BOUNDS   PERIOD   20   STEP     1
 BOUNDARY      1   LAYER   1   ROW    13   COL     1   RATE   -0.295983    
 BOUNDARY      2   LAYER   1   ROW    14   COL     9   RATE    0.285491    



 STREAM LISTING     PERIOD     20   STEP        1

 LAYER ROW COL. STREAM  RCH.  FLOW INTO     FLOW TO   FLOW OUT OF   OVRLND.     DIRECT     STREAM       STREAM     STREAM     STREAM   STREAMBED  STREAMBED
                SEG.NO.  NO.  STRM. RCH.    AQUIFER    STRM. RCH.    RUNOFF     PRECIP       ET          HEAD       DEPTH      WIDTH   CONDCTNC.   GRADIENT

   1    1    1     1     1    5.4001E+01  3.5066E-01   5.3650E+01  0.000E+00  0.000E+00  0.000E+00  1.09450E+03  1.450E+00  1.751E+01  7.879E-02  1.483E+00
   1    2    2     1     2    5.3650E+01  5.4294E-01   5.3107E+01  0.000E+00  0.000E+00  0.000E+00  1.08950E+03  1.445E+00  1.745E+01  1.222E-01  1.482E+00
   1    3    3     1     3    5.3107E+01  4.6294E-01   5.2644E+01  0.000E+00  0.000E+00  0.000E+00  1.08386E+03  1.438E+00  1.739E+01  1.043E-01  1.479E+00
   1    3    4     1     4    5.2644E+01  4.2621E-01   5.2218E+01  0.000E+00  0.000E+00  0.000E+00  1.07884E+03  1.432E+00  1.733E+01  9.616E-02  1.477E+00
   1    4    5     2     1    5.0218E+01  3.7682E-01   4.9841E+01  0.000E+00  0.000E+00  0.000E+00  1.07376E+03  1.831E+00  1.200E+01  7.800E-02  1.610E+00
   1    5    6     2     2    4.9841E+01  2.8942E-01   4.9552E+01  0.000E+00  0.000E+00  0.000E+00  1.06833E+03  1.824E+00  1.200E+01  6.000E-02  1.608E+00
   1    6    6     2     3    4.9552E+01  2.8904E-01   4.9263E+01  0.000E+00  0.000E+00  0.000E+00  1.06361E+03  1.817E+00  1.200E+01  6.000E-02  1.606E+00
   1    7    6     2     4    4.9263E+01  2.8865E-01   4.8974E+01  0.000E+00  0.000E+00  0.000E+00  1.05889E+03  1.811E+00  1.200E+01  6.000E-02  1.604E+00
   1    8    6     2     5    4.8974E+01  2.8827E-01   4.8686E+01  0.000E+00  0.000E+00  0.000E+00  1.05416E+03  1.804E+00  1.200E+01  6.000E-02  1.601E+00
   1    3    5     3     1    2.0000E+00  2.8252E-01   1.7175E+00  0.000E+00  0.000E+00  0.000E+00  1.07555E+03  1.909E+00  9.636E+00  7.227E-02  1.955E+00
   1    3    6     3     2    1.7175E+00  2.4905E-01   1.4684E+00  0.000E+00  0.000E+00  0.000E+00  1.07264E+03  1.727E+00  8.909E+00  6.682E-02  1.864E+00
   1    3    7     3     3    1.4684E+00  1.9718E-01   1.2712E+00  0.000E+00  0.000E+00  0.000E+00  1.06987E+03  1.555E+00  8.218E+00  5.547E-02  1.777E+00
   1    4    8     3     4    1.2712E+00  2.2567E-01   1.0456E+00  0.000E+00  0.000E+00  0.000E+00  1.06682E+03  1.364E+00  7.455E+00  6.709E-02  1.682E+00
   1    5    8     3     5    1.0456E+00  1.5790E-01   8.8768E-01  0.000E+00  0.000E+00  0.000E+00  1.06362E+03  1.164E+00  6.655E+00  4.991E-02  1.582E+00
   1    6    8     3     6    8.8768E-01  5.5980E-02   8.3170E-01  0.000E+00  0.000E+00  0.000E+00  1.06158E+03  1.036E+00  6.145E+00  1.844E-02  1.518E+00
   1    5   10     4     1    1.0000E+01  9.0919E-02   9.9091E+00  0.000E+00  0.000E+00  0.000E+00  1.07836E+03  6.368E-01  1.000E+01  2.500E-02  1.212E+00
   1    5    9     4     2    9.9091E+00  1.8158E-01   9.7275E+00  0.000E+00  0.000E+00  0.000E+00  1.07154E+03  6.315E-01  1.000E+01  5.000E-02  1.211E+00
   1    6    8     4     3    9.7275E+00  1.2689E-01   9.6006E+00  0.000E+00  0.000E+00  0.000E+00  1.06381E+03  6.256E-01  1.000E+01  3.500E-02  1.209E+00
   1    6    8     5     1    1.0432E+01  2.2686E-01   1.0205E+01  0.000E+00  0.000E+00  0.000E+00  1.05868E+03  6.790E-01  1.542E+01  6.166E-02  1.226E+00
   1    7    7     5     2    1.0205E+01  2.7894E-01   9.9265E+00  0.000E+00  0.000E+00  0.000E+00  1.05417E+03  6.732E-01  1.519E+01  7.594E-02  1.224E+00
   1    8    7     5     3    9.9265E+00  1.9221E-01   9.7343E+00  0.000E+00  0.000E+00  0.000E+00  1.04992E+03  6.676E-01  1.497E+01  5.241E-02  1.223E+00
   1    8    6     5     4    9.7343E+00  1.3577E-01   9.5985E+00  0.000E+00  0.000E+00  0.000E+00  1.04691E+03  6.637E-01  1.482E+01  3.706E-02  1.221E+00
   1    9    6     6     1    5.8284E+01  3.0156E-01   5.7983E+01  0.000E+00  0.000E+00  0.000E+00  1.04475E+03  2.026E+00  1.200E+01  6.000E-02  1.675E+00
   1   10    7     6     2    5.7983E+01  3.0118E-01   5.7682E+01  0.000E+00  0.000E+00  0.000E+00  1.04020E+03  2.020E+00  1.200E+01  6.000E-02  1.673E+00
   1   11    7     6     3    5.7682E+01  3.0080E-01   5.7381E+01  0.000E+00  0.000E+00  0.000E+00  1.03565E+03  2.013E+00  1.200E+01  6.000E-02  1.671E+00
   1   12    7     6     4    5.7381E+01  3.0042E-01   5.7080E+01  0.000E+00  0.000E+00  0.000E+00  1.03110E+03  2.007E+00  1.200E+01  6.000E-02  1.669E+00
   1   13    7     6     5    5.7080E+01  1.9647E-02   5.7061E+01  0.000E+00  0.000E+00  0.000E+00  1.02791E+03  2.004E+00  1.200E+01  2.400E-02  2.729E-01
   1   14    9     7     1    1.5000E+02  1.3319E+00   1.4867E+02  0.000E+00  0.000E+00  0.000E+00  1.03987E+03  2.288E+00  5.529E+01  5.593E-01  7.938E-01
   1   13    8     7     2    1.4867E+02  1.8270E+00   1.4684E+02  0.000E+00  0.000E+00  0.000E+00  1.03478E+03  2.279E+00  5.526E+01  6.148E-01  9.906E-01
   1   13    7     7     3    1.4684E+02  1.4497E+00   1.4539E+02  0.000E+00  0.000E+00  0.000E+00  1.02969E+03  2.271E+00  5.522E+01  5.585E-01  8.653E-01
   1   13    6     8     1    2.0245E+02  1.0305E+00   2.0142E+02  0.000E+00  0.000E+00  0.000E+00  1.02502E+03  3.149E+00  4.566E+01  4.653E-01  7.383E-01
   1   13    5     8     2    2.0142E+02  2.3563E-01   2.0119E+02  0.000E+00  0.000E+00  0.000E+00  1.01877E+03  3.145E+00  4.561E+01  4.648E-01  1.690E-01
   1   13    4     8     3    2.0119E+02 -2.2535E+00   2.0344E+02  0.000E+00  0.000E+00  0.000E+00  1.01253E+03  3.151E+00  4.569E+01  4.656E+00 -1.613E-01
   1   13    3     8     4    2.0344E+02 -3.4355E+00   2.0688E+02  0.000E+00  0.000E+00  0.000E+00  1.00629E+03  3.168E+00  4.593E+01  4.681E+00 -2.447E-01
   1   13    2     8     5    2.0688E+02 -2.6041E+00   2.0948E+02  0.000E+00  0.000E+00  0.000E+00  1.00006E+03  3.185E+00  4.619E+01  4.706E+00 -1.844E-01
   1   13    1     8     6    2.0948E+02 -2.0291E+00   2.1151E+02  0.000E+00  0.000E+00  0.000E+00  9.95073E+02  3.198E+00  4.638E+01  2.836E+00 -2.385E-01



 UBDSV3 SAVING "           GW ET" ON UNIT  61 AT TIME STEP 1, STRESS PERIOD 20
 UBDSV3 SAVING "    UZF RECHARGE" ON UNIT  61 AT TIME STEP 1, STRESS PERIOD 20
 UBDSV3 SAVING " SURFACE LEAKAGE" ON UNIT  61 AT TIME STEP 1, STRESS PERIOD 20
 UBDSV3 SAVING "       HORT+DUNN" ON UNIT  61 AT TIME STEP 1, STRESS PERIOD 20
 UBDSV3 SAVING "  STORAGE CHANGE" ON UNIT  61 AT TIME STEP 1, STRESS PERIOD 20


UNSATURATED ZONE PACKAGE VOLUMETRIC BUDGET FOR  TIME STEP     1 STRESS PERIOD   20
  ------------------------------------------------------------------------------



     CUMULATIVE VOLUMES      L**3       RATES FOR THIS TIME STEP      L**3/T
     ------------------                 ------------------------

           IN:                                      IN:
           ---                                      ---
        INFILTRATION =   570141830.0116          INFILTRATION =          72.6785

          OUT:                                     OUT:
          ----                                     ----
              UZF ET =   530867472.9654                UZF ET =          58.2448
        UZF RECHARGE =    37934422.1554          UZF RECHARGE =       0.0000E+00

            IN - OUT =     1339934.8908              IN - OUT =          14.4337

          STORAGE:                                 STORAGE:
          --------                                 --------
      STORAGE CHANGE =     1339935.6242        STORAGE CHANGE =          14.4337

 PERCENT DISCREPANCY IS DIFFERENCE BETWEEN IN-OUT MINUS CHANGE IN STORAGE
 DIVIDED BY THE AVERAGE OF IN AND OUT TIMES 100

 PERCENT DISCREPANCY =           0.00     PERCENT DISCREPANCY =           0.00






 

            AG WELLS      PERIOD   20   STEP   1
 AG WELL      1   LAYER   1   ROW     6   COL     4   RATE    -11.9718    
 AG WELL      2   LAYER   1   ROW     6   COL     5   RATE    -11.9718    
 AG WELL      3   LAYER   1   ROW     7   COL     4   RATE    -11.9718    
 AG WELL      4   LAYER   1   ROW     7   COL     5   RATE    -11.9718    
 AG WELL      5   LAYER   1   ROW     8   COL     4   RATE    -11.9718    
 AG WELL      6   LAYER   1   ROW     8   COL     5   RATE    -11.9718    
 
 

        GW IRRIGATION     PERIOD   20   STEP   1
 AG WELL      1   ROW     6   COL     4   RATE     11.9718    
 AG WELL      2   ROW     6   COL     5   RATE     11.9718    
 AG WELL      3   ROW     7   COL     4   RATE     11.9718    
 AG WELL      4   ROW     7   COL     5   RATE     11.9718    
 AG WELL      5   ROW     8   COL     4   RATE     11.9718    
 AG WELL      6   ROW     8   COL     5   RATE     11.9718    
 
1
  VOLUMETRIC BUDGET FOR AGRICULTURAL FIELDS AT  END OF TIME STEP    1, STRESS PERIOD  20
  ------------------------------------------------------------------------------

     CUMULATIVE VOLUMES      L**3       RATES FOR THIS TIME STEP      L**3/T
     ------------------                 ------------------------

           IN:                                      IN:
           ---                                      ---
               AG WELLS  =   529872928.0000                 AG WELLS  =          71.8310
      DIVERSION SEGMENTS =           0.0000        DIVERSION SEGMENTS =           0.0000
       IRRIGATION PONDS  =           0.0000         IRRIGATION PONDS  =           0.0000
           GW IRRIGATION =           0.0000             GW IRRIGATION =           0.0000
           SW IRRIGATION =           0.0000             SW IRRIGATION =           0.0000
        SYSTEM LOSSES GW =           0.0000          SYSTEM LOSSES GW =           0.0000
        SYSTEM LOSSES SW =           0.0000          SYSTEM LOSSES SW =           0.0000

                TOTAL IN =   529872928.0000                  TOTAL IN =          71.8310

          OUT:                                     OUT:
          ----                                     ----
               AG WELLS  =           0.0000                 AG WELLS  =           0.0000
      DIVERSION SEGMENTS =           0.0000        DIVERSION SEGMENTS =           0.0000
       IRRIGATION PONDS  =           0.0000         IRRIGATION PONDS  =           0.0000
           GW IRRIGATION =   529872928.0000             GW IRRIGATION =          71.8310
           SW IRRIGATION =           0.0000             SW IRRIGATION =           0.0000
        SYSTEM LOSSES GW =           0.0000          SYSTEM LOSSES GW =           0.0000
        SYSTEM LOSSES SW =           0.0000          SYSTEM LOSSES SW =           0.0000

               TOTAL OUT =   529872928.0000                 TOTAL OUT =          71.8310

                IN - OUT =           0.0000                  IN - OUT =           0.0000

     PERCENT DISCREPANCY =           0.00         PERCENT DISCREPANCY =           0.00




 HEAD WILL BE SAVED ON UNIT   62 AT END OF TIME STEP    1, STRESS PERIOD   20
1
  VOLUMETRIC BUDGET FOR ENTIRE MODEL AT END OF TIME STEP    1, STRESS PERIOD  20
  ------------------------------------------------------------------------------

     CUMULATIVE VOLUMES      L**3       RATES FOR THIS TIME STEP      L**3/T
     ------------------                 ------------------------

           IN:                                      IN:
           ---                                      ---
             STORAGE     =   683751680.0000               STORAGE     =          70.4576
       CONSTANT HEAD     =           0.0000         CONSTANT HEAD     =           0.0000
     HEAD DEP BOUNDS     =    13561199.0000       HEAD DEP BOUNDS     =           0.2855
      STREAM LEAKAGE     =   597113728.0000        STREAM LEAKAGE     =          12.8147
        UZF RECHARGE     =    37934444.0000          UZF RECHARGE     =           0.0000
               GW ET     =           0.0000                 GW ET     =           0.0000
     SURFACE LEAKAGE     =           0.0000       SURFACE LEAKAGE     =           0.0000
           AG WELLS      =           0.0000             AG WELLS      =           0.0000

                TOTAL IN =  1332361088.0000                  TOTAL IN =          83.5578

          OUT:                                     OUT:
          ----                                     ----
             STORAGE     =   282365760.0000               STORAGE     =           0.3685
       CONSTANT HEAD     =           0.0000         CONSTANT HEAD     =           0.0000
     HEAD DEP BOUNDS     =    14004873.0000       HEAD DEP BOUNDS     =           0.2960
      STREAM LEAKAGE     =   489515392.0000        STREAM LEAKAGE     =          10.3222
        UZF RECHARGE     =           0.0000          UZF RECHARGE     =           0.0000
               GW ET     =    16607047.0000                 GW ET     =           0.7399
     SURFACE LEAKAGE     =           0.0000       SURFACE LEAKAGE     =           0.0000
           AG WELLS      =   529872928.0000             AG WELLS      =          71.8310

               TOTAL OUT =  1332365952.0000                 TOTAL OUT =          83.5576

                IN - OUT =       -4864.0000                  IN - OUT =       2.5177E-04

     PERCENT DISCREPANCY =          -0.00         PERCENT DISCREPANCY =           0.00






         TIME SUMMARY AT END OF TIME STEP    1 IN STRESS PERIOD   20
                    SECONDS     MINUTES      HOURS       DAYS        YEARS
                    -----------------------------------------------------------
   TIME STEP LENGTH  87667.      1461.1      24.352      1.0147     2.77799E-03
 STRESS PERIOD TIME  87667.      1461.1      24.352      1.0147     2.77799E-03
         TOTAL TIME 4.75142E+07 7.91903E+05  13198.      549.93      1.5056    
1
 
 SOLVING FOR HEAD 
                                                   Max.-Head-Change                         Max.-Flux-Residual
  Residual-Control   Outer-Iter.   Inner-Iter.     Column Row Layer    Maximum-Head-Change  Column Row Layer    Maximum-Flux-Residual          L2-NORM 
          0                 1           2             5    8     1       0.3619602105E-01       5    8    1         0.1974442210E+01      0.4553454106E+01
          0                 2           2             4    7     1      -0.1802771293E+00       5    8    1        -0.9763663252E+01      0.2382664148E+02
          0                 3           2             4    7     1      -0.2377665796E-02       4    7    1        -0.1277356629E+00      0.3041988786E+00
          0                 4           2             4    7     1      -0.1185737541E-01       5    8    1        -0.6368346706E+00      0.1559479853E+01
          0                 5           2             4    7     1      -0.8931896895E-02       4    7    1        -0.4793868733E+00      0.1174219448E+01
          0                 6           2             4    7     1       0.6084892348E-03       4    7    1         0.3357092623E-01      0.8222315138E-01
          0                 7           1             4    7     1      -0.2422958290E-04       4    7    1        -0.1373979197E-02      0.3365194648E-02

    ------------------------------------------------
       NWT REQUIRED            7 OUTER ITERATIONS 
       AND A TOTAL OF         13 INNER ITERATIONS.
    ------------------------------------------------

 NO OUTPUT CONTROL FOR STRESS PERIOD   20   TIME STEP    2
 
 SOLVING FOR HEAD 
                                                   Max.-Head-Change                         Max.-Flux-Residual
  Residual-Control   Outer-Iter.   Inner-Iter.     Column Row Layer    Maximum-Head-Change  Column Row Layer    Maximum-Flux-Residual          L2-NORM 
          0                 1           2             5    8     1       0.4074113632E-01       5    8    1         0.2224553052E+01      0.5073082369E+01
          0                 2           2             4    7     1      -0.1803992657E+00       5    8    1        -0.9788208604E+01      0.2386740404E+02
          0                 3           2             4    7     1      -0.2369149522E-02       4    7    1        -0.1273010090E+00      0.3014793620E+00
          0                 4           2             4    7     1      -0.1185800051E-01       5    8    1        -0.6369567235E+00      0.1559680816E+01
          0                 5           2             4    7     1      -0.8931876563E-02       4    7    1        -0.4793847250E+00      0.1174205233E+01
          0                 6           2             4    7     1       0.6084878496E-03       4    7    1         0.3357077457E-01      0.8222215812E-01
          0                 7           1             4    7     1      -0.2422952787E-04       4    7    1        -0.1373972863E-02      0.3365156173E-02

    ------------------------------------------------
       NWT REQUIRED            7 OUTER ITERATIONS 
       AND A TOTAL OF         13 INNER ITERATIONS.
    ------------------------------------------------

 NO OUTPUT CONTROL FOR STRESS PERIOD   20   TIME STEP    3
 
 SOLVING FOR HEAD 
                                                   Max.-Head-Change                         Max.-Flux-Residual
  Residual-Control   Outer-Iter.   Inner-Iter.     Column Row Layer    Maximum-Head-Change  Column Row Layer    Maximum-Flux-Residual          L2-NORM 
          0                 1           2             5    8     1       0.4504557204E-01       5    8    1         0.2461186714E+01      0.5578144704E+01
          0                 2           2             4    7     1      -0.1805360989E+00       5    8    1        -0.9811871604E+01      0.2390804242E+02
          0                 3           2             4    7     1      -0.2359606773E-02       4    7    1        -0.1268092464E+00      0.2988012043E+00
          0                 4           2             4    7     1      -0.1185869914E-01       5    8    1        -0.6370743263E+00      0.1559880915E+01
          0                 5           2             4    7     1      -0.8931852427E-02       4    7    1        -0.4793822972E+00      0.1174191091E+01
          0                 6           2             4    7     1       0.6084862050E-03       4    7    1         0.3357060333E-01      0.8222116987E-01
          0                 7           1             4    7     1      -0.2422946247E-04       4    7    1        -0.1373965743E-02      0.3365117667E-02

    ------------------------------------------------
       NWT REQUIRED            7 OUTER ITERATIONS 
       AND A TOTAL OF         13 INNER ITERATIONS.
    ------------------------------------------------

 NO OUTPUT CONTROL FOR STRESS PERIOD   20   TIME STEP    4
 
 SOLVING FOR HEAD 
                                                   Max.-Head-Change                         Max.-Flux-Residual
  Residual-Control   Outer-Iter.   Inner-Iter.     Column Row Layer    Maximum-Head-Change  Column Row Layer    Maximum-Flux-Residual          L2-NORM 
          0                 1           2             5    8     1       0.4911830602E-01       5    8    1         0.2684874586E+01      0.6064970374E+01
          0                 2           2             4    7     1      -0.1806775558E+00       5    8    1        -0.9834240004E+01      0.2394735873E+02
          0                 3           2             4    7     1      -0.2349742457E-02       4    7    1        -0.1262989864E+00      0.2962407214E+00
          0                 4           2             4    7     1      -0.1185942179E-01       5    8    1        -0.6371854697E+00      0.1560073509E+01
          0                 5           2             4    7     1      -0.8931827846E-02       4    7    1        -0.4793786176E+00      0.1174176957E+01
          0                 6           2             4    7     1       0.6084845297E-03       4    7    1         0.3357141450E-01      0.8222062021E-01
          0                 7           1             4    7     1      -0.2422939547E-04       4    7    1        -0.1374071420E-02      0.3365120528E-02

    ------------------------------------------------
       NWT REQUIRED            7 OUTER ITERATIONS 
       AND A TOTAL OF         13 INNER ITERATIONS.
    ------------------------------------------------

 NO OUTPUT CONTROL FOR STRESS PERIOD   20   TIME STEP    5
 
 SOLVING FOR HEAD 
                                                   Max.-Head-Change                         Max.-Flux-Residual
  Residual-Control   Outer-Iter.   Inner-Iter.     Column Row Layer    Maximum-Head-Change  Column Row Layer    Maximum-Flux-Residual          L2-NORM 
          0                 1           2             5    8     1       0.5297530159E-01       5    8    1         0.2896516954E+01      0.6532938815E+01
          0                 2           2             4    7     1      -0.1808231211E+00       5    8    1        -0.9855403837E+01      0.2398540842E+02
          0                 3           2             4    7     1      -0.2339592477E-02       4    7    1        -0.1257719115E+00      0.2937881948E+00
          0                 4           2             4    7     1      -0.1186016584E-01       5    8    1        -0.6372906036E+00      0.1560259082E+01
          0                 5           2             4    7     1      -0.8931802897E-02       4    7    1        -0.4793760409E+00      0.1174162945E+01
          0                 6           2             4    7     1       0.6084828306E-03       4    7    1         0.3357123435E-01      0.8222039252E-01
          0                 7           1             4    7     1      -0.2422932812E-04       4    7    1        -0.1374064072E-02      0.3365152318E-02

    ------------------------------------------------
       NWT REQUIRED            7 OUTER ITERATIONS 
       AND A TOTAL OF         13 INNER ITERATIONS.
    ------------------------------------------------

 NO OUTPUT CONTROL FOR STRESS PERIOD   20   TIME STEP    6
 
 SOLVING FOR HEAD 
                                                   Max.-Head-Change                         Max.-Flux-Residual
  Residual-Control   Outer-Iter.   Inner-Iter.     Column Row Layer    Maximum-Head-Change  Column Row Layer    Maximum-Flux-Residual          L2-NORM 
          0                 1           2             5    8     1       0.5663123584E-01       5    8    1         0.3096941520E+01      0.6982304460E+01
          0                 2           2             4    7     1      -0.1809723373E+00       5    8    1        -0.9875445879E+01      0.2402224468E+02
          0                 3           2             4    7     1      -0.2329188709E-02       4    7    1        -0.1252295028E+00      0.2914353866E+00
          0                 4           2             4    7     1      -0.1186092894E-01       5    8    1        -0.6373901418E+00      0.1560439788E+01
          0                 5           2             4    7     1      -0.8931777651E-02       4    7    1        -0.4793733889E+00      0.1174150204E+01
          0                 6           2             4    7     1       0.6084811107E-03       4    7    1         0.3357104892E-01      0.8221950290E-01
          0                 7           1             4    7     1      -0.2422925961E-04       4    7    1        -0.1374056495E-02      0.3365117560E-02

    ------------------------------------------------
       NWT REQUIRED            7 OUTER ITERATIONS 
       AND A TOTAL OF         13 INNER ITERATIONS.
    ------------------------------------------------

 NO OUTPUT CONTROL FOR STRESS PERIOD   20   TIME STEP    7
 
 SOLVING FOR HEAD 
                                                   Max.-Head-Change                         Max.-Flux-Residual
  Residual-Control   Outer-Iter.   Inner-Iter.     Column Row Layer    Maximum-Head-Change  Column Row Layer    Maximum-Flux-Residual          L2-NORM 
          0                 1           2             5    8     1       0.6009989867E-01       5    8    1         0.3286924985E+01      0.7413690185E+01
          0                 2           2             4    7     1      -0.1811247370E+00       5    8    1        -0.9894443804E+01      0.2405791874E+02
          0                 3           2             4    7     1      -0.2318563699E-02       4    7    1        -0.1246736139E+00      0.2891681482E+00
          0                 4           2             4    7     1      -0.1186170867E-01       5    8    1        -0.6374844721E+00      0.1560606444E+01
          0                 5           2             4    7     1      -0.8931752177E-02       4    7    1        -0.4793706707E+00      0.1174133151E+01
          0                 6           2             4    7     1       0.6084793748E-03       5    7    1         0.3357127169E-01      0.8222276098E-01
          0                 7           1             4    7     1      -0.2422919030E-04       5    7    1        -0.1374166669E-02      0.3365439126E-02

    ------------------------------------------------
       NWT REQUIRED            7 OUTER ITERATIONS 
       AND A TOTAL OF         13 INNER ITERATIONS.
    ------------------------------------------------

 NO OUTPUT CONTROL FOR STRESS PERIOD   20   TIME STEP    8
 
 SOLVING FOR HEAD 
                                                   Max.-Head-Change                         Max.-Flux-Residual
  Residual-Control   Outer-Iter.   Inner-Iter.     Column Row Layer    Maximum-Head-Change  Column Row Layer    Maximum-Flux-Residual          L2-NORM 
          0                 1           2             5    8     1       0.6339370362E-01       5    8    1         0.3467166663E+01      0.7827879318E+01
          0                 2           2             4    7     1      -0.1812799244E+00       5    8    1        -0.9912467545E+01      0.2409247670E+02
          0                 3           2             4    7     1      -0.2307745049E-02       4    7    1        -0.1241058262E+00      0.2869719454E+00
          0                 4           2             4    7     1      -0.1186250304E-01       5    8    1        -0.6375739434E+00      0.1560770322E+01
          0                 5           2             4    7     1      -0.8931726547E-02       4    7    1        -0.4793678940E+00      0.1174118631E+01
          0                 6           2             4    7     1       0.6084776288E-03       5    7    1         0.3357096411E-01      0.8222424594E-01
          0                 7           1             4    7     1      -0.2422912099E-04       4    6    1        -0.1374173233E-02      0.3365620688E-02

    ------------------------------------------------
       NWT REQUIRED            7 OUTER ITERATIONS 
       AND A TOTAL OF         13 INNER ITERATIONS.
    ------------------------------------------------

 NO OUTPUT CONTROL FOR STRESS PERIOD   20   TIME STEP    9
 
 SOLVING FOR HEAD 
                                                   Max.-Head-Change                         Max.-Flux-Residual
  Residual-Control   Outer-Iter.   Inner-Iter.     Column Row Layer    Maximum-Head-Change  Column Row Layer    Maximum-Flux-Residual          L2-NORM 
          0                 1           2             5    8     1       0.6652435202E-01       5    8    1         0.3638325595E+01      0.8225811908E+01
          0                 2           2             4    7     1      -0.1814374821E+00       5    8    1        -0.9929583010E+01      0.2412597613E+02
          0                 3           2             4    7     1      -0.2296761797E-02       4    7    1        -0.1235277730E+00      0.2848531374E+00
          0                 4           2             4    7     1      -0.1186330986E-01       5    8    1        -0.6376489154E+00      0.1560924467E+01
          0                 5           2             4    7     1      -0.8931700802E-02       4    7    1        -0.4793650668E+00      0.1174101931E+01
          0                 6           2             4    7     1       0.6084758747E-03       5    7    1         0.3357066226E-01      0.8222784570E-01
          0                 7           1             4    7     1      -0.2422905065E-04       4    6    1        -0.1374160131E-02      0.3365915333E-02

    ------------------------------------------------
       NWT REQUIRED            7 OUTER ITERATIONS 
       AND A TOTAL OF         13 INNER ITERATIONS.
    ------------------------------------------------

 NO OUTPUT CONTROL FOR STRESS PERIOD   20   TIME STEP   10
 
 SOLVING FOR HEAD 
                                                   Max.-Head-Change                         Max.-Flux-Residual
  Residual-Control   Outer-Iter.   Inner-Iter.     Column Row Layer    Maximum-Head-Change  Column Row Layer    Maximum-Flux-Residual          L2-NORM 
          0                 1           2             5    8     1       0.6950266632E-01       5    8    1         0.3801009361E+01      0.8608199406E+01
          0                 2           2             4    7     1      -0.1815970593E+00       5    8    1        -0.9945850958E+01      0.2415845059E+02
          0                 3           2             4    7     1      -0.2285638383E-02       4    7    1        -0.1229408766E+00      0.2827914347E+00
          0                 4           2             4    7     1      -0.1186412735E-01       5    8    1        -0.6377289779E+00      0.1561077166E+01
          0                 5           2             4    7     1      -0.8931675005E-02       4    7    1        -0.4793621962E+00      0.1174088291E+01
          0                 6           2             4    7     1       0.6084741175E-03       5    6    1         0.3357069078E-01      0.8222929154E-01
          0                 7           1             4    7     1      -0.2422898100E-04       5    6    1        -0.1374260282E-02      0.3366058473E-02

    ------------------------------------------------
       NWT REQUIRED            7 OUTER ITERATIONS 
       AND A TOTAL OF         13 INNER ITERATIONS.
    ------------------------------------------------

 NO OUTPUT CONTROL FOR STRESS PERIOD   20   TIME STEP   11
 
 SOLVING FOR HEAD 
                                                   Max.-Head-Change                         Max.-Flux-Residual
  Residual-Control   Outer-Iter.   Inner-Iter.     Column Row Layer    Maximum-Head-Change  Column Row Layer    Maximum-Flux-Residual          L2-NORM 
          0                 1           2             5    8     1       0.7233846586E-01       5    8    1         0.3955770404E+01      0.8975847560E+01
          0                 2           2             4    7     1      -0.1817583220E+00       5    8    1        -0.9961326635E+01      0.2418994696E+02
          0                 3           2             4    7     1      -0.2274398073E-02       4    7    1        -0.1223464637E+00      0.2807966169E+00
          0                 4           2             4    7     1      -0.1186495379E-01       5    8    1        -0.6378051312E+00      0.1561229435E+01
          0                 5           2             4    7     1      -0.8931649205E-02       4    7    1        -0.4793592885E+00      0.1174077645E+01
          0                 6           2             4    7     1       0.6084723594E-03       5    6    1         0.3357032792E-01      0.8222854748E-01
          0                 7           1             4    7     1      -0.2422891065E-04       5    6    1        -0.1374245478E-02      0.3366028330E-02

    ------------------------------------------------
       NWT REQUIRED            7 OUTER ITERATIONS 
       AND A TOTAL OF         13 INNER ITERATIONS.
    ------------------------------------------------

 NO OUTPUT CONTROL FOR STRESS PERIOD   20   TIME STEP   12
 
 SOLVING FOR HEAD 
                                                   Max.-Head-Change                         Max.-Flux-Residual
  Residual-Control   Outer-Iter.   Inner-Iter.     Column Row Layer    Maximum-Head-Change  Column Row Layer    Maximum-Flux-Residual          L2-NORM 
          0                 1           2             5    8     1       0.7504096438E-01       5    8    1         0.4103125987E+01      0.9329526866E+01
          0                 2           2             4    7     1      -0.1819209355E+00       5    8    1        -0.9976061769E+01      0.2422050485E+02
          0                 3           2             4    7     1      -0.2263064186E-02       4    7    1        -0.1217458693E+00      0.2788622607E+00
          0                 4           2             4    7     1      -0.1186578746E-01       5    8    1        -0.6378647134E+00      0.1561371454E+01
          0                 5           2             4    7     1      -0.8931623450E-02       4    7    1        -0.4793563504E+00      0.1174063986E+01
          0                 6           2             4    7     1       0.6084706051E-03       5    8    1         0.3357045372E-01      0.8223062287E-01
          0                 7           1             4    7     1      -0.2422884123E-04       5    8    1        -0.1374281254E-02      0.3366218789E-02

    ------------------------------------------------
       NWT REQUIRED            7 OUTER ITERATIONS 
       AND A TOTAL OF         13 INNER ITERATIONS.
    ------------------------------------------------

 NO OUTPUT CONTROL FOR STRESS PERIOD   20   TIME STEP   13
 
 SOLVING FOR HEAD 
                                                   Max.-Head-Change                         Max.-Flux-Residual
  Residual-Control   Outer-Iter.   Inner-Iter.     Column Row Layer    Maximum-Head-Change  Column Row Layer    Maximum-Flux-Residual          L2-NORM 
          0                 1           2             5    8     1       0.7761880632E-01       5    8    1         0.4243561711E+01      0.9669971398E+01
          0                 2           2             4    7     1      -0.1820846145E+00       5    8    1        -0.9990104921E+01      0.2425016375E+02
          0                 3           2             4    7     1      -0.2251656584E-02       4    7    1        -0.1211402344E+00      0.2769863810E+00
          0                 4           2             4    7     1      -0.1186662689E-01       5    8    1        -0.6379332134E+00      0.1561514551E+01
          0                 5           2             4    7     1      -0.8931597783E-02       4    7    1        -0.4793533874E+00      0.1174053992E+01
          0                 6           2             4    7     1       0.6084688569E-03       5    8    1         0.3357011976E-01      0.8222992398E-01
          0                 7           1             4    7     1      -0.2422877180E-04       5    8    1        -0.1374267635E-02      0.3366190217E-02

    ------------------------------------------------
       NWT REQUIRED            7 OUTER ITERATIONS 
       AND A TOTAL OF         13 INNER ITERATIONS.
    ------------------------------------------------

 NO OUTPUT CONTROL FOR STRESS PERIOD   20   TIME STEP   14
 
 SOLVING FOR HEAD 
                                                   Max.-Head-Change                         Max.-Flux-Residual
  Residual-Control   Outer-Iter.   Inner-Iter.     Column Row Layer    Maximum-Head-Change  Column Row Layer    Maximum-Flux-Residual          L2-NORM 
          0                 1           2             5    8     1       0.8007970914E-01       5    8    1         0.4377510058E+01      0.9997875599E+01
          0                 2           2             4    7     1      -0.1822490825E+00       5    8    1        -0.1000349934E+02      0.2427896007E+02
          0                 3           2             4    7     1      -0.2240194524E-02       4    7    1        -0.1205306693E+00      0.2751678843E+00
          0                 4           2             4    7     1      -0.1186747067E-01       5    8    1        -0.6379985558E+00      0.1561653500E+01
          0                 5           2             4    7     1      -0.8931572243E-02       4    7    1        -0.4793504051E+00      0.1174044287E+01
          0                 6           2             4    7     1       0.6084671167E-03       5    8    1         0.3356980112E-01      0.8222924515E-01
          0                 7           1             4    7     1      -0.2422870226E-04       5    8    1        -0.1374254620E-02      0.3366162445E-02

    ------------------------------------------------
       NWT REQUIRED            7 OUTER ITERATIONS 
       AND A TOTAL OF         13 INNER ITERATIONS.
    ------------------------------------------------

 NO OUTPUT CONTROL FOR STRESS PERIOD   20   TIME STEP   15
 
 SOLVING FOR HEAD 
                                                   Max.-Head-Change                         Max.-Flux-Residual
  Residual-Control   Outer-Iter.   Inner-Iter.     Column Row Layer    Maximum-Head-Change  Column Row Layer    Maximum-Flux-Residual          L2-NORM 
          0                 1           2             5    8     1       0.8243108543E-01       5    8    1         0.4505386882E+01      0.1031389898E+02
          0                 2           2             5    7     1      -0.1824541920E+00       5    8    1        -0.1001628661E+02      0.2430692976E+02
          0                 3           2             4    7     1      -0.2228695815E-02       4    7    1        -0.1199182005E+00      0.2734038281E+00
          0                 4           2             4    7     1      -0.1186831748E-01       5    8    1        -0.6380609429E+00      0.1561788478E+01
          0                 5           2             4    7     1      -0.8931546866E-02       4    7    1        -0.4793474083E+00      0.1174034859E+01
          0                 6           2             4    7     1       0.6084653876E-03       5    8    1         0.3356949684E-01      0.8222858565E-01
          0                 7           1             4    7     1      -0.2422863319E-04       5    8    1        -0.1374242207E-02      0.3366135836E-02

    ------------------------------------------------
       NWT REQUIRED            7 OUTER ITERATIONS 
       AND A TOTAL OF         13 INNER ITERATIONS.
    ------------------------------------------------

 NO OUTPUT CONTROL FOR STRESS PERIOD   20   TIME STEP   16
 
 SOLVING FOR HEAD 
                                                   Max.-Head-Change                         Max.-Flux-Residual
  Residual-Control   Outer-Iter.   Inner-Iter.     Column Row Layer    Maximum-Head-Change  Column Row Layer    Maximum-Flux-Residual          L2-NORM 
          0                 1           2             5    8     1       0.8467965604E-01       5    8    1         0.4627568702E+01      0.1061865156E+02
          0                 2           2             5    7     1      -0.1826549002E+00       5    8    1        -0.1002850439E+02      0.2433410549E+02
          0                 3           2             4    7     1      -0.2217176939E-02       4    7    1        -0.1193037777E+00      0.2716915895E+00
          0                 4           2             4    7     1      -0.1186916610E-01       5    8    1        -0.6381205578E+00      0.1561919644E+01
          0                 5           2             4    7     1      -0.8931521685E-02       4    7    1        -0.4793444019E+00      0.1174025697E+01
          0                 6           2             4    7     1       0.6084636726E-03       5    8    1         0.3356920599E-01      0.8222794459E-01
          0                 7           1             4    7     1      -0.2422856503E-04       5    8    1        -0.1374230340E-02      0.3366109305E-02

    ------------------------------------------------
       NWT REQUIRED            7 OUTER ITERATIONS 
       AND A TOTAL OF         13 INNER ITERATIONS.
    ------------------------------------------------

 NO OUTPUT CONTROL FOR STRESS PERIOD   20   TIME STEP   17
 
 SOLVING FOR HEAD 
                                                   Max.-Head-Change                         Max.-Flux-Residual
  Residual-Control   Outer-Iter.   Inner-Iter.     Column Row Layer    Maximum-Head-Change  Column Row Layer    Maximum-Flux-Residual          L2-NORM 
          0                 1           2             5    8     1       0.8683164365E-01       5    8    1         0.4744404003E+01      0.1091270603E+02
          0                 2           2             5    7     1      -0.1828512012E+00       5    8    1        -0.1004018753E+02      0.2436051814E+02
          0                 3           2             4    7     1      -0.2205653091E-02       4    7    1        -0.1186882797E+00      0.2700287500E+00
          0                 4           2             4    7     1      -0.1187001540E-01       5    8    1        -0.6381775700E+00      0.1562047151E+01
          0                 5           2             4    7     1      -0.8931496730E-02       4    7    1        -0.4793413900E+00      0.1174016789E+01
          0                 6           2             4    7     1       0.6084619723E-03       5    8    1         0.3356892777E-01      0.8222732130E-01
          0                 7           1             4    7     1      -0.2422849733E-04       5    8    1        -0.1374218961E-02      0.3366083796E-02

    ------------------------------------------------
       NWT REQUIRED            7 OUTER ITERATIONS 
       AND A TOTAL OF         13 INNER ITERATIONS.
    ------------------------------------------------

 NO OUTPUT CONTROL FOR STRESS PERIOD   20   TIME STEP   18
 
 SOLVING FOR HEAD 
                                                   Max.-Head-Change                         Max.-Flux-Residual
  Residual-Control   Outer-Iter.   Inner-Iter.     Column Row Layer    Maximum-Head-Change  Column Row Layer    Maximum-Flux-Residual          L2-NORM 
          0                 1           2             5    8     1       0.8889295797E-01       5    8    1         0.4856223263E+01      0.1119662314E+02
          0                 2           2             5    7     1      -0.1830431657E+00       5    8    1        -0.1005136906E+02      0.2438619981E+02
          0                 3           2             4    7     1      -0.2194137315E-02       4    7    1        -0.1180724656E+00      0.2684128680E+00
          0                 4           2             4    7     1      -0.1187086443E-01       5    8    1        -0.6382321403E+00      0.1562171153E+01
          0                 5           2             4    7     1      -0.8931472028E-02       4    7    1        -0.4793383764E+00      0.1174008126E+01
          0                 6           2             4    7     1       0.6084602896E-03       5    8    1         0.3356866142E-01      0.8222671504E-01
          0                 7           1             4    7     1      -0.2422843079E-04       5    8    1        -0.1374208105E-02      0.3366059025E-02

    ------------------------------------------------
       NWT REQUIRED            7 OUTER ITERATIONS 
       AND A TOTAL OF         13 INNER ITERATIONS.
    ------------------------------------------------

 NO OUTPUT CONTROL FOR STRESS PERIOD   20   TIME STEP   19
 
 SOLVING FOR HEAD 
                                                   Max.-Head-Change                         Max.-Flux-Residual
  Residual-Control   Outer-Iter.   Inner-Iter.     Column Row Layer    Maximum-Head-Change  Column Row Layer    Maximum-Flux-Residual          L2-NORM 
          0                 1           2             5    8     1       0.9086907651E-01       5    8    1         0.4963332901E+01      0.1147091008E+02
          0                 2           2             5    7     1      -0.1832308684E+00       5    8    1        -0.1006207964E+02      0.2441117861E+02
          0                 3           2             4    7     1      -0.2182643396E-02       4    7    1        -0.1174571329E+00      0.2668418363E+00
          0                 4           2             4    7     1      -0.1187171215E-01       5    8    1        -0.6382844178E+00      0.1562291787E+01
          0                 5           2             4    7     1      -0.8931447602E-02       4    7    1        -0.4793353650E+00      0.1173999698E+01
          0                 6           2             4    7     1       0.6084586252E-03       5    8    1         0.3356840620E-01      0.8222612510E-01
          0                 7           1             4    7     1      -0.2422836424E-04       5    8    1        -0.1374197672E-02      0.3366034866E-02

    ------------------------------------------------
       NWT REQUIRED            7 OUTER ITERATIONS 
       AND A TOTAL OF         13 INNER ITERATIONS.
    ------------------------------------------------

 NO OUTPUT CONTROL FOR STRESS PERIOD   20   TIME STEP   20
 
 SOLVING FOR HEAD 
                                                   Max.-Head-Change                         Max.-Flux-Residual
  Residual-Control   Outer-Iter.   Inner-Iter.     Column Row Layer    Maximum-Head-Change  Column Row Layer    Maximum-Flux-Residual          L2-NORM 
          0                 1           2             5    8     1       0.9276507704E-01       5    8    1         0.5066016933E+01      0.1173604246E+02
          0                 2           2             5    7     1      -0.1834144027E+00       5    8    1        -0.1007234767E+02      0.2443548157E+02
          0                 3           2             4    7     1      -0.2171183092E-02       4    7    1        -0.1168429658E+00      0.2653136633E+00
          0                 4           2             4    7     1      -0.1187255770E-01       5    8    1        -0.6383345406E+00      0.1562409185E+01
          0                 5           2             4    7     1      -0.8931423479E-02       4    7    1        -0.4793323593E+00      0.1173991495E+01
          0                 6           2             4    7     1       0.6084569818E-03       4    7    1         0.3356817849E-01      0.8222555089E-01
          0                 7           1             4    7     1      -0.2422829839E-04       5    8    1        -0.1374187673E-02      0.3366011354E-02

    ------------------------------------------------
       NWT REQUIRED            7 OUTER ITERATIONS 
       AND A TOTAL OF         13 INNER ITERATIONS.
    ------------------------------------------------

 NO OUTPUT CONTROL FOR STRESS PERIOD   20   TIME STEP   21
 
 SOLVING FOR HEAD 
                                                   Max.-Head-Change                         Max.-Flux-Residual
  Residual-Control   Outer-Iter.   Inner-Iter.     Column Row Layer    Maximum-Head-Change  Column Row Layer    Maximum-Flux-Residual          L2-NORM 
          0                 1           2             5    8     1       0.9458539473E-01       5    8    1         0.5164523018E+01      0.1199247086E+02
          0                 2           2             5    7     1      -0.1835938492E+00       5    8    1        -0.1008219791E+02      0.2445913461E+02
          0                 3           2             4    7     1      -0.2159767166E-02       4    7    1        -0.1162305909E+00      0.2638264815E+00
          0                 4           2             4    7     1      -0.1187340029E-01       5    8    1        -0.6383826291E+00      0.1562523472E+01
          0                 5           2             4    7     1      -0.8931399676E-02       4    7    1        -0.4793293622E+00      0.1173983510E+01
          0                 6           2             4    7     1       0.6084553604E-03       4    7    1         0.3356796875E-01      0.8222499178E-01
          0                 7           1             4    7     1      -0.2422823403E-04       5    8    1        -0.1374178070E-02      0.3365988549E-02

    ------------------------------------------------
       NWT REQUIRED            7 OUTER ITERATIONS 
       AND A TOTAL OF         13 INNER ITERATIONS.
    ------------------------------------------------

 NO OUTPUT CONTROL FOR STRESS PERIOD   20   TIME STEP   22
 
 SOLVING FOR HEAD 
                                                   Max.-Head-Change                         Max.-Flux-Residual
  Residual-Control   Outer-Iter.   Inner-Iter.     Column Row Layer    Maximum-Head-Change  Column Row Layer    Maximum-Flux-Residual          L2-NORM 
          0                 1           2             5    8     1       0.9633471270E-01       5    8    1         0.5259112390E+01      0.1224062617E+02
          0                 2           2             5    7     1      -0.1837692918E+00       5    8    1        -0.1009165649E+02      0.2448216359E+02
          0                 3           2             4    7     1      -0.2148405417E-02       4    7    1        -0.1156205823E+00      0.2623784505E+00
          0                 4           2             4    7     1      -0.1187423918E-01       5    8    1        -0.6384288106E+00      0.1562634771E+01
          0                 5           2             4    7     1      -0.8931376210E-02       4    7    1        -0.4793263765E+00      0.1173975732E+01
          0                 6           2             4    7     1       0.6084537617E-03       4    7    1         0.3356775979E-01      0.8222444717E-01
          0                 7           1             4    7     1      -0.2422817036E-04       5    8    1        -0.1374168852E-02      0.3365966236E-02

    ------------------------------------------------
       NWT REQUIRED            7 OUTER ITERATIONS 
       AND A TOTAL OF         13 INNER ITERATIONS.
    ------------------------------------------------

 NO OUTPUT CONTROL FOR STRESS PERIOD   20   TIME STEP   23
 
 SOLVING FOR HEAD 
                                                   Max.-Head-Change                         Max.-Flux-Residual
  Residual-Control   Outer-Iter.   Inner-Iter.     Column Row Layer    Maximum-Head-Change  Column Row Layer    Maximum-Flux-Residual          L2-NORM 
          0                 1           2             5    8     1       0.9801696195E-01       5    8    1         0.5350004429E+01      0.1248089392E+02
          0                 2           2             5    7     1      -0.1839408294E+00       5    8    1        -0.1010074534E+02      0.2450459125E+02
          0                 3           2             4    7     1      -0.2137106783E-02       4    7    1        -0.1150134623E+00      0.2609679670E+00
          0                 4           2             4    7     1      -0.1187507371E-01       5    8    1        -0.6384731918E+00      0.1562743193E+01
          0                 5           2             4    7     1      -0.8931353099E-02       4    7    1        -0.4793234049E+00      0.1173968156E+01
          0                 6           2             4    7     1       0.6084521874E-03       4    7    1         0.3356755181E-01      0.8222391654E-01
          0                 7           1             4    7     1      -0.2422810784E-04       5    8    1        -0.1374159983E-02      0.3365944448E-02

    ------------------------------------------------
       NWT REQUIRED            7 OUTER ITERATIONS 
       AND A TOTAL OF         13 INNER ITERATIONS.
    ------------------------------------------------

 NO OUTPUT CONTROL FOR STRESS PERIOD   20   TIME STEP   24
 
 SOLVING FOR HEAD 
                                                   Max.-Head-Change                         Max.-Flux-Residual
  Residual-Control   Outer-Iter.   Inner-Iter.     Column Row Layer    Maximum-Head-Change  Column Row Layer    Maximum-Flux-Residual          L2-NORM 
          0                 1           2             5    8     1       0.9963593481E-01       5    8    1         0.5437410781E+01      0.1271366080E+02
          0                 2           2             5    7     1      -0.1841085611E+00       5    8    1        -0.1010948563E+02      0.2452644033E+02
          0                 3           2             4    7     1      -0.2125880270E-02       4    7    1        -0.1144097585E+00      0.2595934978E+00
          0                 4           2             4    7     1      -0.1187590321E-01       5    8    1        -0.6385158755E+00      0.1562848846E+01
          0                 5           2             4    7     1      -0.8931330358E-02       4    7    1        -0.4793204499E+00      0.1173960772E+01
          0                 6           2             4    7     1       0.6084506380E-03       4    7    1         0.3356734499E-01      0.8222339933E-01
          0                 7           1             4    7     1      -0.2422804613E-04       5    8    1        -0.1374151437E-02      0.3365923303E-02

    ------------------------------------------------
       NWT REQUIRED            7 OUTER ITERATIONS 
       AND A TOTAL OF         13 INNER ITERATIONS.
    ------------------------------------------------

 NO OUTPUT CONTROL FOR STRESS PERIOD   20   TIME STEP   25
 
 SOLVING FOR HEAD 
                                                   Max.-Head-Change                         Max.-Flux-Residual
  Residual-Control   Outer-Iter.   Inner-Iter.     Column Row Layer    Maximum-Head-Change  Column Row Layer    Maximum-Flux-Residual          L2-NORM 
          0                 1           2             5    8     1       0.1011951613E+00       5    8    1         0.5521528087E+01      0.1293927119E+02
          0                 2           2             5    7     1      -0.1842725571E+00       5    8    1        -0.1011789703E+02      0.2454773235E+02
          0                 3           2             4    7     1      -0.2114731359E-02       4    7    1        -0.1138097984E+00      0.2582535556E+00
          0                 4           2             4    7     1      -0.1187672728E-01       5    8    1        -0.6385569576E+00      0.1562951834E+01
          0                 5           2             4    7     1      -0.8931307994E-02       4    7    1        -0.4793175131E+00      0.1173953574E+01
          0                 6           2             4    7     1       0.6084491148E-03       4    7    1         0.3356713945E-01      0.8222289508E-01
          0                 7           1             4    7     1      -0.2422798604E-04       5    8    1        -0.1374143219E-02      0.3365902595E-02

    ------------------------------------------------
       NWT REQUIRED            7 OUTER ITERATIONS 
       AND A TOTAL OF         13 INNER ITERATIONS.
    ------------------------------------------------

 NO OUTPUT CONTROL FOR STRESS PERIOD   20   TIME STEP   26
 
 SOLVING FOR HEAD 
                                                   Max.-Head-Change                         Max.-Flux-Residual
  Residual-Control   Outer-Iter.   Inner-Iter.     Column Row Layer    Maximum-Head-Change  Column Row Layer    Maximum-Flux-Residual          L2-NORM 
          0                 1           2             5    8     1       0.1026979280E+00       5    8    1         0.5602539387E+01      0.1315805284E+02
          0                 2           2             5    7     1      -0.1844329029E+00       5    8    1        -0.1012599783E+02      0.2456848759E+02
          0                 3           2             4    7     1      -0.2103669437E-02       4    7    1        -0.1132141285E+00      0.2569467788E+00
          0                 4           2             4    7     1      -0.1187754521E-01       5    8    1        -0.6385965270E+00      0.1563052254E+01
          0                 5           2             4    7     1      -0.8931286024E-02       4    7    1        -0.4793145973E+00      0.1173946555E+01
          0                 6           2             4    7     1       0.6084476179E-03       4    7    1         0.3356693536E-01      0.8222240330E-01
          0                 7           1             4    7     1      -0.2422792571E-04       5    8    1        -0.1374135316E-02      0.3365882631E-02

    ------------------------------------------------
       NWT REQUIRED            7 OUTER ITERATIONS 
       AND A TOTAL OF         13 INNER ITERATIONS.
    ------------------------------------------------

 NO OUTPUT CONTROL FOR STRESS PERIOD   20   TIME STEP   27
 
 SOLVING FOR HEAD 
                                                   Max.-Head-Change                         Max.-Flux-Residual
  Residual-Control   Outer-Iter.   Inner-Iter.     Column Row Layer    Maximum-Head-Change  Column Row Layer    Maximum-Flux-Residual          L2-NORM 
          0                 1           2             5    8     1       0.1041473022E+00       5    8    1         0.5680615101E+01      0.1337032780E+02
          0                 2           2             5    7     1      -0.1845897271E+00       5    8    1        -0.1013380508E+02      0.2458872658E+02
          0                 3           2             4    7     1      -0.2092698503E-02       4    7    1        -0.1126229951E+00      0.2556718069E+00
          0                 4           2             4    7     1      -0.1187835671E-01       5    8    1        -0.6386346667E+00      0.1563150204E+01
          0                 5           2             4    7     1      -0.8931264452E-02       4    7    1        -0.4793117035E+00      0.1173939709E+01
          0                 6           2             4    7     1       0.6084461481E-03       4    7    1         0.3356673279E-01      0.8222192350E-01
          0                 7           1             4    7     1      -0.2422786734E-04       5    8    1        -0.1374127673E-02      0.3365862820E-02

    ------------------------------------------------
       NWT REQUIRED            7 OUTER ITERATIONS 
       AND A TOTAL OF         13 INNER ITERATIONS.
    ------------------------------------------------

 NO OUTPUT CONTROL FOR STRESS PERIOD   20   TIME STEP   28
 
 SOLVING FOR HEAD 
                                                   Max.-Head-Change                         Max.-Flux-Residual
  Residual-Control   Outer-Iter.   Inner-Iter.     Column Row Layer    Maximum-Head-Change  Column Row Layer    Maximum-Flux-Residual          L2-NORM 
          0                 1           2             5    8     1       0.1055464139E+00       5    8    1         0.5755929873E+01      0.1357638599E+02
          0                 2           2             5    7     1      -0.1847430830E+00       5    8    1        -0.1014133624E+02      0.2460846729E+02
          0                 3           2             4    7     1      -0.2081824797E-02       4    7    1        -0.1120367639E+00      0.2544274715E+00
          0                 4           2             4    7     1      -0.1187916131E-01       5    8    1        -0.6386714618E+00      0.1563245770E+01
          0                 5           2             4    7     1      -0.8931243289E-02       4    7    1        -0.4793088336E+00      0.1173933029E+01
          0                 6           2             4    7     1       0.6084447062E-03       4    7    1         0.3356653191E-01      0.8222145532E-01
          0                 7           1             4    7     1      -0.2422780989E-04       5    8    1        -0.1374120299E-02      0.3365843576E-02

    ------------------------------------------------
       NWT REQUIRED            7 OUTER ITERATIONS 
       AND A TOTAL OF         13 INNER ITERATIONS.
    ------------------------------------------------

 NO OUTPUT CONTROL FOR STRESS PERIOD   20   TIME STEP   29
 
 SOLVING FOR HEAD 
                                                   Max.-Head-Change                         Max.-Flux-Residual
  Residual-Control   Outer-Iter.   Inner-Iter.     Column Row Layer    Maximum-Head-Change  Column Row Layer    Maximum-Flux-Residual          L2-NORM 
          0                 1           2             5    8     1       0.1068934233E+00       5    8    1         0.5828606998E+01      0.1379389580E+02
          0                 2           2             5    7     1      -0.1848926864E+00       5    8    1        -0.1014860355E+02      0.2462782151E+02
          0                 3           2             4    7     1      -0.2071054351E-02       4    7    1        -0.1114557678E+00      0.2534004111E+00
          0                 4           2             4    7     1      -0.1187995857E-01       5    8    1        -0.6387069272E+00      0.1563339026E+01
          0                 5           2             4    7     1      -0.8931222545E-02       4    7    1        -0.4793059894E+00      0.1173926516E+01
          0                 6           2             4    7     1       0.6084432931E-03       5    8    1         0.3356634072E-01      0.8222099879E-01
          0                 7           1             4    7     1      -0.2422775359E-04       5    8    1        -0.1374113202E-02      0.3365824885E-02

    ------------------------------------------------
       NWT REQUIRED            7 OUTER ITERATIONS 
       AND A TOTAL OF         13 INNER ITERATIONS.
    ------------------------------------------------

 NO OUTPUT CONTROL FOR STRESS PERIOD   20   TIME STEP   30



 STREAM LISTING     PERIOD     20   STEP       30

 LAYER ROW COL. STREAM  RCH.  FLOW INTO     FLOW TO   FLOW OUT OF   OVRLND.     DIRECT     STREAM       STREAM     STREAM     STREAM   STREAMBED  STREAMBED
                SEG.NO.  NO.  STRM. RCH.    AQUIFER    STRM. RCH.    RUNOFF     PRECIP       ET          HEAD       DEPTH      WIDTH   CONDCTNC.   GRADIENT

   1    1    1     1     1    4.3035E+01  3.1412E-01   4.2721E+01  0.000E+00  0.000E+00  0.000E+00  1.09440E+03  1.353E+00  1.604E+01  7.216E-02  1.451E+00
   1    2    2     1     2    4.2721E+01  4.8658E-01   4.2235E+01  0.000E+00  0.000E+00  0.000E+00  1.08941E+03  1.350E+00  1.598E+01  1.118E-01  1.450E+00
   1    3    3     1     3    4.2235E+01  4.1507E-01   4.1819E+01  0.000E+00  0.000E+00  0.000E+00  1.08377E+03  1.347E+00  1.591E+01  9.548E-02  1.449E+00
   1    3    4     1     4    4.1819E+01  3.8230E-01   4.1437E+01  0.000E+00  0.000E+00  0.000E+00  1.07875E+03  1.344E+00  1.586E+01  8.800E-02  1.448E+00
   1    4    5     2     1    3.9437E+01  3.5748E-01   3.9080E+01  0.000E+00  0.000E+00  0.000E+00  1.07352E+03  1.583E+00  1.200E+01  7.800E-02  1.528E+00
   1    5    6     2     2    3.9080E+01  2.7453E-01   3.8805E+01  0.000E+00  0.000E+00  0.000E+00  1.06808E+03  1.575E+00  1.200E+01  6.000E-02  1.525E+00
   1    6    6     2     3    3.8805E+01  2.7413E-01   3.8531E+01  0.000E+00  0.000E+00  0.000E+00  1.06336E+03  1.569E+00  1.200E+01  6.000E-02  1.523E+00
   1    7    6     2     4    3.8531E+01  2.7372E-01   3.8257E+01  0.000E+00  0.000E+00  0.000E+00  1.05864E+03  1.562E+00  1.200E+01  6.000E-02  1.521E+00
   1    8    6     2     5    3.8257E+01  2.7332E-01   3.7984E+01  0.000E+00  0.000E+00  0.000E+00  1.05391E+03  1.555E+00  1.200E+01  6.000E-02  1.518E+00
   1    3    5     3     1    2.0000E+00  2.8252E-01   1.7175E+00  0.000E+00  0.000E+00  0.000E+00  1.07555E+03  1.909E+00  9.636E+00  7.227E-02  1.955E+00
   1    3    6     3     2    1.7175E+00  2.4905E-01   1.4684E+00  0.000E+00  0.000E+00  0.000E+00  1.07264E+03  1.727E+00  8.909E+00  6.682E-02  1.864E+00
   1    3    7     3     3    1.4684E+00  1.9718E-01   1.2712E+00  0.000E+00  0.000E+00  0.000E+00  1.06987E+03  1.555E+00  8.218E+00  5.547E-02  1.777E+00
   1    4    8     3     4    1.2712E+00  2.2567E-01   1.0456E+00  0.000E+00  0.000E+00  0.000E+00  1.06682E+03  1.364E+00  7.455E+00  6.709E-02  1.682E+00
   1    5    8     3     5    1.0456E+00  1.5790E-01   8.8768E-01  0.000E+00  0.000E+00  0.000E+00  1.06362E+03  1.164E+00  6.655E+00  4.991E-02  1.582E+00
   1    6    8     3     6    8.8768E-01  5.5980E-02   8.3170E-01  0.000E+00  0.000E+00  0.000E+00  1.06158E+03  1.036E+00  6.145E+00  1.844E-02  1.518E+00
   1    5   10     4     1    1.0000E+01  9.0919E-02   9.9091E+00  0.000E+00  0.000E+00  0.000E+00  1.07836E+03  6.368E-01  1.000E+01  2.500E-02  1.212E+00
   1    5    9     4     2    9.9091E+00  1.8158E-01   9.7275E+00  0.000E+00  0.000E+00  0.000E+00  1.07154E+03  6.315E-01  1.000E+01  5.000E-02  1.211E+00
   1    6    8     4     3    9.7275E+00  1.2689E-01   9.6006E+00  0.000E+00  0.000E+00  0.000E+00  1.06381E+03  6.256E-01  1.000E+01  3.500E-02  1.209E+00
   1    6    8     5     1    1.0432E+01  2.2686E-01   1.0205E+01  0.000E+00  0.000E+00  0.000E+00  1.05868E+03  6.790E-01  1.542E+01  6.166E-02  1.226E+00
   1    7    7     5     2    1.0205E+01  2.7894E-01   9.9265E+00  0.000E+00  0.000E+00  0.000E+00  1.05417E+03  6.732E-01  1.519E+01  7.594E-02  1.224E+00
   1    8    7     5     3    9.9265E+00  1.9221E-01   9.7343E+00  0.000E+00  0.000E+00  0.000E+00  1.04992E+03  6.676E-01  1.497E+01  5.241E-02  1.223E+00
   1    8    6     5     4    9.7343E+00  1.3577E-01   9.5985E+00  0.000E+00  0.000E+00  0.000E+00  1.04691E+03  6.637E-01  1.482E+01  3.706E-02  1.221E+00
   1    9    6     6     1    4.7583E+01  2.8760E-01   4.7295E+01  0.000E+00  0.000E+00  0.000E+00  1.04452E+03  1.793E+00  1.200E+01  6.000E-02  1.598E+00
   1   10    7     6     2    4.7295E+01  2.8721E-01   4.7008E+01  0.000E+00  0.000E+00  0.000E+00  1.03997E+03  1.787E+00  1.200E+01  6.000E-02  1.596E+00
   1   11    7     6     3    4.7008E+01  2.8681E-01   4.6721E+01  0.000E+00  0.000E+00  0.000E+00  1.03542E+03  1.780E+00  1.200E+01  6.000E-02  1.593E+00
   1   12    7     6     4    4.6721E+01  2.8642E-01   4.6434E+01  0.000E+00  0.000E+00  0.000E+00  1.03086E+03  1.774E+00  1.200E+01  6.000E-02  1.591E+00
   1   13    7     6     5    4.6434E+01  1.4310E-02   4.6420E+01  0.000E+00  0.000E+00  0.000E+00  1.02768E+03  1.770E+00  1.200E+01  2.400E-02  1.987E-01
   1   14    9     7     1    1.5000E+02  1.3326E+00   1.4867E+02  0.000E+00  0.000E+00  0.000E+00  1.03987E+03  2.288E+00  5.529E+01  5.593E-01  7.942E-01
   1   13    8     7     2    1.4867E+02  1.8303E+00   1.4684E+02  0.000E+00  0.000E+00  0.000E+00  1.03478E+03  2.279E+00  5.526E+01  6.148E-01  9.924E-01
   1   13    7     7     3    1.4684E+02  1.4558E+00   1.4538E+02  0.000E+00  0.000E+00  0.000E+00  1.02969E+03  2.271E+00  5.522E+01  5.585E-01  8.689E-01
   1   13    6     8     1    1.9180E+02  9.8950E-01   1.9081E+02  0.000E+00  0.000E+00  0.000E+00  1.02496E+03  3.086E+00  4.475E+01  4.560E-01  7.234E-01
   1   13    5     8     2    1.9081E+02  2.0984E-01   1.9060E+02  0.000E+00  0.000E+00  0.000E+00  1.01871E+03  3.082E+00  4.469E+01  4.554E-01  1.536E-01
   1   13    4     8     3    1.9060E+02 -2.4476E+00   1.9305E+02  0.000E+00  0.000E+00  0.000E+00  1.01246E+03  3.089E+00  4.479E+01  4.564E+00 -1.787E-01
   1   13    3     8     4    1.9305E+02 -3.5769E+00   1.9663E+02  0.000E+00  0.000E+00  0.000E+00  1.00623E+03  3.107E+00  4.505E+01  4.591E+00 -2.597E-01
   1   13    2     8     5    1.9663E+02 -2.7400E+00   1.9937E+02  0.000E+00  0.000E+00  0.000E+00  1.00000E+03  3.126E+00  4.533E+01  4.619E+00 -1.977E-01
   1   13    1     8     6    1.9937E+02 -2.1018E+00   2.0147E+02  0.000E+00  0.000E+00  0.000E+00  9.95015E+02  3.140E+00  4.553E+01  2.784E+00 -2.517E-01





UNSATURATED ZONE PACKAGE VOLUMETRIC BUDGET FOR  TIME STEP    30 STRESS PERIOD   20
  ------------------------------------------------------------------------------



     CUMULATIVE VOLUMES      L**3       RATES FOR THIS TIME STEP      L**3/T
     ------------------                 ------------------------

           IN:                                      IN:
           ---                                      ---
        INFILTRATION =   754874773.3922          INFILTRATION =          72.6628

          OUT:                                     OUT:
          ----                                     ----
              UZF ET =   678938116.0959                UZF ET =          58.2420
        UZF RECHARGE =    37934422.1554          UZF RECHARGE =       0.0000E+00

            IN - OUT =    38002235.1408              IN - OUT =          14.4207

          STORAGE:                                 STORAGE:
          --------                                 --------
      STORAGE CHANGE =    38002236.3845        STORAGE CHANGE =          14.4207

 PERCENT DISCREPANCY IS DIFFERENCE BETWEEN IN-OUT MINUS CHANGE IN STORAGE
 DIVIDED BY THE AVERAGE OF IN AND OUT TIMES 100

 PERCENT DISCREPANCY =           0.00     PERCENT DISCREPANCY =           0.00






1
  VOLUMETRIC BUDGET FOR AGRICULTURAL FIELDS AT  END OF TIME STEP   30, STRESS PERIOD  20
  ------------------------------------------------------------------------------

     CUMULATIVE VOLUMES      L**3       RATES FOR THIS TIME STEP      L**3/T
     ------------------                 ------------------------

           IN:                                      IN:
           ---                                      ---
               AG WELLS  =   712451328.0000                 AG WELLS  =          71.8153
      DIVERSION SEGMENTS =           0.0000        DIVERSION SEGMENTS =           0.0000
       IRRIGATION PONDS  =           0.0000         IRRIGATION PONDS  =           0.0000
           GW IRRIGATION =           0.0000             GW IRRIGATION =           0.0000
           SW IRRIGATION =           0.0000             SW IRRIGATION =           0.0000
        SYSTEM LOSSES GW =           0.0000          SYSTEM LOSSES GW =           0.0000
        SYSTEM LOSSES SW =           0.0000          SYSTEM LOSSES SW =           0.0000

                TOTAL IN =   712451328.0000                  TOTAL IN =          71.8153

          OUT:                                     OUT:
          ----                                     ----
               AG WELLS  =           0.0000                 AG WELLS  =           0.0000
      DIVERSION SEGMENTS =           0.0000        DIVERSION SEGMENTS =           0.0000
       IRRIGATION PONDS  =           0.0000         IRRIGATION PONDS  =           0.0000
           GW IRRIGATION =   712451328.0000             GW IRRIGATION =          71.8153
           SW IRRIGATION =           0.0000             SW IRRIGATION =           0.0000
        SYSTEM LOSSES GW =           0.0000          SYSTEM LOSSES GW =           0.0000
        SYSTEM LOSSES SW =           0.0000          SYSTEM LOSSES SW =           0.0000

               TOTAL OUT =   712451328.0000                 TOTAL OUT =          71.8153

                IN - OUT =           0.0000                  IN - OUT =           0.0000

     PERCENT DISCREPANCY =           0.00         PERCENT DISCREPANCY =           0.00



1
  VOLUMETRIC BUDGET FOR ENTIRE MODEL AT END OF TIME STEP   30, STRESS PERIOD  20
  ------------------------------------------------------------------------------

     CUMULATIVE VOLUMES      L**3       RATES FOR THIS TIME STEP      L**3/T
     ------------------                 ------------------------

           IN:                                      IN:
           ---                                      ---
             STORAGE     =   861554560.0000               STORAGE     =          70.7718
       CONSTANT HEAD     =           0.0000         CONSTANT HEAD     =           0.0000
     HEAD DEP BOUNDS     =    14287080.0000       HEAD DEP BOUNDS     =           0.2855
      STREAM LEAKAGE     =   629693376.0000        STREAM LEAKAGE     =          12.4331
        UZF RECHARGE     =    37934444.0000          UZF RECHARGE     =           0.0000
               GW ET     =           0.0000                 GW ET     =           0.0000
     SURFACE LEAKAGE     =           0.0000       SURFACE LEAKAGE     =           0.0000
           AG WELLS      =           0.0000             AG WELLS      =           0.0000

                TOTAL IN =  1543469440.0000                  TOTAL IN =          83.4905

          OUT:                                     OUT:
          ----                                     ----
             STORAGE     =   283281792.0000               STORAGE     =           0.2846
       CONSTANT HEAD     =           0.0000         CONSTANT HEAD     =           0.0000
     HEAD DEP BOUNDS     =    14756330.0000       HEAD DEP BOUNDS     =           0.2953
      STREAM LEAKAGE     =   515419008.0000        STREAM LEAKAGE     =          10.8663
        UZF RECHARGE     =           0.0000          UZF RECHARGE     =           0.0000
               GW ET     =    17565930.0000                 GW ET     =           0.2288
     SURFACE LEAKAGE     =           0.0000       SURFACE LEAKAGE     =           0.0000
           AG WELLS      =   712451328.0000             AG WELLS      =          71.8153

               TOTAL OUT =  1543474432.0000                 TOTAL OUT =          83.4904

                IN - OUT =       -4992.0000                  IN - OUT =       1.0681E-04

     PERCENT DISCREPANCY =          -0.00         PERCENT DISCREPANCY =           0.00






         TIME SUMMARY AT END OF TIME STEP   30 IN STRESS PERIOD   20
                    SECONDS     MINUTES      HOURS       DAYS        YEARS
                    -----------------------------------------------------------
   TIME STEP LENGTH  87667.      1461.1      24.352      1.0147     2.77799E-03
 STRESS PERIOD TIME 2.63000E+06  43833.      730.56      30.440     8.33397E-02
         TOTAL TIME 5.00565E+07 8.34276E+05  13905.      579.36      1.5862    
1
1
                            STRESS PERIOD NO.   21, LENGTH =   2630000.    
                            -----------------------------------------------

                              NUMBER OF TIME STEPS =    30

                               MULTIPLIER FOR DELT =     1.000

                            INITIAL TIME STEP SIZE =   87666.66    

 REUSING NON-PARAMETER GHB CELLS FROM LAST STRESS PERIOD

      2 GHB CELLS

 REUSING STREAM SEGMENT DATA FROM LAST STRESS PERIOD



            AREAL INFILTRATION RATE
 READING ON UNIT   19 WITH FORMAT: (FREE)              

            1           2           3           4           5           6           7           8           9          10
 ........................................................................................................................
   1   1.0000E-10  2.0000E-10   0.000       0.000       0.000       0.000       0.000       0.000       0.000       0.000    
   2   2.0000E-10  1.0000E-10  2.0000E-10   0.000       0.000      8.0000E-10  8.0000E-10  5.0000E-10   0.000       0.000    
   3    0.000      5.0000E-10  1.0000E-10  1.0000E-10  8.0000E-10  8.0000E-10  5.0000E-10  5.0000E-10   0.000       0.000    
   4   8.0000E-10  5.0000E-10  1.0000E-10  1.0000E-10  1.0000E-10  1.0000E-10  1.0000E-10  1.0000E-10  2.0000E-10   0.000    
   5   8.0000E-10  5.0000E-10  1.0000E-10  1.0000E-10  1.0000E-10  1.0000E-10  1.0000E-10  1.0000E-10  1.0000E-10  1.0000E-10
   6   8.0000E-10  5.0000E-10  5.0000E-10  2.0000E-10  2.0000E-10  1.0000E-10  1.0000E-10  1.0000E-10  1.0000E-10  5.0000E-10
   7   8.0000E-10  5.0000E-10  5.0000E-10  2.0000E-10  2.0000E-10  1.0000E-10  1.0000E-10  2.0000E-10  2.0000E-10   0.000    
   8    0.000      5.0000E-10  5.0000E-10  2.0000E-10  2.0000E-10  1.0000E-10  1.0000E-10  2.0000E-10  5.0000E-10   0.000    
   9    0.000      5.0000E-10  5.0000E-10  2.0000E-10  2.0000E-10  1.0000E-10  1.0000E-10  2.0000E-10  5.0000E-10   0.000    
  10    0.000      5.0000E-10  5.0000E-10  2.0000E-10  2.0000E-10  1.0000E-10  1.0000E-10  2.0000E-10  5.0000E-10  8.0000E-10
  11    0.000      1.0000E-10  1.0000E-10  1.0000E-10  1.0000E-10  1.0000E-10  1.0000E-10  2.0000E-10  5.0000E-10   0.000    
  12   1.0000E-10  1.0000E-10  1.0000E-10  1.0000E-10  1.0000E-10  1.0000E-10  1.0000E-10  1.0000E-10  2.0000E-10   0.000    
  13   1.0000E-10  1.0000E-10  2.0000E-10  2.0000E-10  2.0000E-10  2.0000E-10  2.0000E-10  1.0000E-10  1.0000E-10   0.000    
  14    0.000      2.0000E-10  5.0000E-10  5.0000E-10  5.0000E-10  5.0000E-10  5.0000E-10  2.0000E-10  1.0000E-10   0.000    
  15    0.000       0.000      8.0000E-10  8.0000E-10  8.0000E-10  8.0000E-10   0.000       0.000       0.000       0.000    

                  ET RATE =  3.250000E-07

 USING ET EXTINCTION DEPTH FROM PREVIOUS STRESS PERIOD. CURRENT PERIOD IS:      21

 USING EXTINCTION WATER CONTENT FROM PREVIOUS STRESS PERIOD. CURRENT PERIOD IS:      21

 USING AIR ENTRY PRESSURE FROM PREVIOUS STRESS PERIOD. CURRENT PERIOD IS:      21

 USING ROOT PRESSURE HEAD FROM PREVIOUS STRESS PERIOD. CURRENT PERIOD IS:      21

 USING ROOT ACTIVITY FROM PREVIOUS STRESS PERIOD. CURRENT PERIOD IS:      21

 PROCESSING AG STRESS PERIOD DATA

 READING AG STRESS PERIOD DATA

 READING IRRIGATION WELL

 NO IRRPOND OR REUSING IRRPOND DATA FROM LAST STRESS PERIOD

 END PROCESSING AG STRESS PERIOD DATA OPTIONS
 
 SOLVING FOR HEAD 
                                                   Max.-Head-Change                         Max.-Flux-Residual
  Residual-Control   Outer-Iter.   Inner-Iter.     Column Row Layer    Maximum-Head-Change  Column Row Layer    Maximum-Flux-Residual          L2-NORM 
          0                 1           2             4    7     1      -0.7967376424E-01       4    7    1        -0.4202900425E+01      0.9846178716E+01
          0                 2           2             4    7     1       0.7749912028E-02       4    7    1         0.4202782711E+00      0.9847675699E+00
          0                 3           2             4    7     1      -0.5277419676E-03       4    7    1        -0.2941960307E-01      0.6897356814E-01
          0                 4           1             4    7     1       0.2099933935E-04       4    7    1         0.1203262940E-02      0.2827148254E-02

    ------------------------------------------------
       NWT REQUIRED            4 OUTER ITERATIONS 
       AND A TOTAL OF          7 INNER ITERATIONS.
    ------------------------------------------------

 NO OUTPUT CONTROL FOR STRESS PERIOD   21   TIME STEP    1
 
 SOLVING FOR HEAD 
                                                   Max.-Head-Change                         Max.-Flux-Residual
  Residual-Control   Outer-Iter.   Inner-Iter.     Column Row Layer    Maximum-Head-Change  Column Row Layer    Maximum-Flux-Residual          L2-NORM 
          0                 1           2             5    8     1       0.1153896291E+00       5    8    1         0.6280848798E+01      0.1487375624E+02
          0                 2           2             5    7     1      -0.1592054072E+00       5    8    1        -0.8748056299E+01      0.2121227027E+02
          0                 3           2             5    7     1       0.1084119164E-01       5    8    1         0.6123582677E+00      0.1484843812E+01
          0                 4           2             5    7     1      -0.4313816636E-03       5    8    1        -0.2504551559E-01      0.6073025013E-01
          0                 5           1             5    7     1       0.5319129102E-05       5    8    1         0.3174038407E-03      0.7696399593E-03

    ------------------------------------------------
       NWT REQUIRED            5 OUTER ITERATIONS 
       AND A TOTAL OF          9 INNER ITERATIONS.
    ------------------------------------------------

 NO OUTPUT CONTROL FOR STRESS PERIOD   21   TIME STEP    2
 
 SOLVING FOR HEAD 
                                                   Max.-Head-Change                         Max.-Flux-Residual
  Residual-Control   Outer-Iter.   Inner-Iter.     Column Row Layer    Maximum-Head-Change  Column Row Layer    Maximum-Flux-Residual          L2-NORM 
          0                 1           2             5    8     1       0.1146485072E+00       5    8    1         0.6238195841E+01      0.1483952311E+02
          0                 2           2             5    7     1      -0.1592418187E+00       5    8    1        -0.8743791144E+01      0.2121269699E+02
          0                 3           2             5    7     1       0.1084337929E-01       5    8    1         0.6120435216E+00      0.1484833998E+01
          0                 4           2             5    7     1      -0.4314687168E-03       5    8    1        -0.2503264232E-01      0.6072986526E-01
          0                 5           1             5    7     1       0.5320202428E-05       5    8    1         0.3172406905E-03      0.7696344930E-03

    ------------------------------------------------
       NWT REQUIRED            5 OUTER ITERATIONS 
       AND A TOTAL OF          9 INNER ITERATIONS.
    ------------------------------------------------

 NO OUTPUT CONTROL FOR STRESS PERIOD   21   TIME STEP    3
 
 SOLVING FOR HEAD 
                                                   Max.-Head-Change                         Max.-Flux-Residual
  Residual-Control   Outer-Iter.   Inner-Iter.     Column Row Layer    Maximum-Head-Change  Column Row Layer    Maximum-Flux-Residual          L2-NORM 
          0                 1           2             5    8     1       0.1139802057E+00       5    8    1         0.6199665876E+01      0.1481057764E+02
          0                 2           2             5    7     1      -0.1592800015E+00       5    8    1        -0.8739772391E+01      0.2121334311E+02
          0                 3           2             5    7     1       0.1084597843E-01       5    8    1         0.6117622360E+00      0.1484879199E+01
          0                 4           2             5    7     1      -0.4315721434E-03       5    8    1        -0.2502113759E-01      0.6073170790E-01
          0                 5           1             5    7     1       0.5321477829E-05       5    8    1         0.3170948994E-03      0.7696587829E-03

    ------------------------------------------------
       NWT REQUIRED            5 OUTER ITERATIONS 
       AND A TOTAL OF          9 INNER ITERATIONS.
    ------------------------------------------------

 NO OUTPUT CONTROL FOR STRESS PERIOD   21   TIME STEP    4
 
 SOLVING FOR HEAD 
                                                   Max.-Head-Change                         Max.-Flux-Residual
  Residual-Control   Outer-Iter.   Inner-Iter.     Column Row Layer    Maximum-Head-Change  Column Row Layer    Maximum-Flux-Residual          L2-NORM 
          0                 1           2             5    8     1       0.1133920243E+00       5    8    1         0.6165112818E+01      0.1478639054E+02
          0                 2           2             5    7     1      -0.1593103186E+00       5    8    1        -0.8736483550E+01      0.2121419322E+02
          0                 3           2             5    7     1       0.1084804214E-01       5    8    1         0.6115320361E+00      0.1484938681E+01
          0                 4           2             5    7     1      -0.4316542643E-03       5    8    1        -0.2501172231E-01      0.6073414085E-01
          0                 5           1             5    7     1       0.5322490219E-05       5    8    1         0.3169755619E-03      0.7696878690E-03

    ------------------------------------------------
       NWT REQUIRED            5 OUTER ITERATIONS 
       AND A TOTAL OF          9 INNER ITERATIONS.
    ------------------------------------------------

 NO OUTPUT CONTROL FOR STRESS PERIOD   21   TIME STEP    5
 
 SOLVING FOR HEAD 
                                                   Max.-Head-Change                         Max.-Flux-Residual
  Residual-Control   Outer-Iter.   Inner-Iter.     Column Row Layer    Maximum-Head-Change  Column Row Layer    Maximum-Flux-Residual          L2-NORM 
          0                 1           2             5    8     1       0.1128620215E+00       5    8    1         0.6134435317E+01      0.1476649364E+02
          0                 2           2             5    7     1      -0.1593415961E+00       5    8    1        -0.8733415860E+01      0.2121522606E+02
          0                 3           2             5    7     1       0.1085017127E-01       5    8    1         0.6113173170E+00      0.1485010953E+01
          0                 4           2             5    7     1      -0.4317389882E-03       5    8    1        -0.2500294020E-01      0.6073709786E-01
          0                 5           1             5    7     1       0.5323535317E-05       5    8    1         0.3168642834E-03      0.7697262808E-03

    ------------------------------------------------
       NWT REQUIRED            5 OUTER ITERATIONS 
       AND A TOTAL OF          9 INNER ITERATIONS.
    ------------------------------------------------

 NO OUTPUT CONTROL FOR STRESS PERIOD   21   TIME STEP    6
 
 SOLVING FOR HEAD 
                                                   Max.-Head-Change                         Max.-Flux-Residual
  Residual-Control   Outer-Iter.   Inner-Iter.     Column Row Layer    Maximum-Head-Change  Column Row Layer    Maximum-Flux-Residual          L2-NORM 
          0                 1           2             5    8     1       0.1123872898E+00       5    8    1         0.6106881904E+01      0.1475046226E+02
          0                 2           2             5    7     1      -0.1593719262E+00       5    8    1        -0.8730660575E+01      0.2121642785E+02
          0                 3           2             5    7     1       0.1085223594E-01       5    8    1         0.6111244645E+00      0.1485095048E+01
          0                 4           2             5    7     1      -0.4318211464E-03       5    8    1        -0.2499505243E-01      0.6074053965E-01
          0                 5           1             5    7     1       0.5324548044E-05       5    8    1         0.3167643158E-03      0.7697693123E-03

    ------------------------------------------------
       NWT REQUIRED            5 OUTER ITERATIONS 
       AND A TOTAL OF          9 INNER ITERATIONS.
    ------------------------------------------------

 NO OUTPUT CONTROL FOR STRESS PERIOD   21   TIME STEP    7
 
 SOLVING FOR HEAD 
                                                   Max.-Head-Change                         Max.-Flux-Residual
  Residual-Control   Outer-Iter.   Inner-Iter.     Column Row Layer    Maximum-Head-Change  Column Row Layer    Maximum-Flux-Residual          L2-NORM 
          0                 1           2             5    8     1       0.1119634124E+00       5    8    1         0.6082201941E+01      0.1473793478E+02
          0                 2           2             4    7     1      -0.1594020234E+00       5    8    1        -0.8728192632E+01      0.2121778411E+02
          0                 3           2             4    7     1       0.1085428069E-01       5    8    1         0.6109517244E+00      0.1485189953E+01
          0                 4           2             4    7     1      -0.4319025171E-03       5    8    1        -0.2498798729E-01      0.6074442203E-01
          0                 5           1             4    7     1       0.5325544640E-05       5    8    1         0.3166747815E-03      0.7698194206E-03

    ------------------------------------------------
       NWT REQUIRED            5 OUTER ITERATIONS 
       AND A TOTAL OF          9 INNER ITERATIONS.
    ------------------------------------------------

 NO OUTPUT CONTROL FOR STRESS PERIOD   21   TIME STEP    8
 
 SOLVING FOR HEAD 
                                                   Max.-Head-Change                         Max.-Flux-Residual
  Residual-Control   Outer-Iter.   Inner-Iter.     Column Row Layer    Maximum-Head-Change  Column Row Layer    Maximum-Flux-Residual          L2-NORM 
          0                 1           2             5    8     1       0.1115862010E+00       5    8    1         0.6060158636E+01      0.1472859400E+02
          0                 2           2             4    7     1      -0.1594887666E+00       5    8    1        -0.8725988352E+01      0.2121928094E+02
          0                 3           2             4    7     1       0.1086018650E-01       5    8    1         0.6107974392E+00      0.1485294700E+01
          0                 4           2             4    7     1      -0.4321375203E-03       5    8    1        -0.2498167696E-01      0.6074870856E-01
          0                 5           1             4    7     1       0.5328442239E-05       5    8    1         0.3165948146E-03      0.7698744605E-03

    ------------------------------------------------
       NWT REQUIRED            5 OUTER ITERATIONS 
       AND A TOTAL OF          9 INNER ITERATIONS.
    ------------------------------------------------

 NO OUTPUT CONTROL FOR STRESS PERIOD   21   TIME STEP    9
 
 SOLVING FOR HEAD 
                                                   Max.-Head-Change                         Max.-Flux-Residual
  Residual-Control   Outer-Iter.   Inner-Iter.     Column Row Layer    Maximum-Head-Change  Column Row Layer    Maximum-Flux-Residual          L2-NORM 
          0                 1           2             5    8     1       0.1112521036E+00       5    8    1         0.6040550422E+01      0.1472216074E+02
          0                 2           2             4    7     1      -0.1595935381E+00       5    8    1        -0.8724027579E+01      0.2122090792E+02
          0                 3           2             4    7     1       0.1086731959E-01       5    8    1         0.6106601918E+00      0.1485408555E+01
          0                 4           2             4    7     1      -0.4324213593E-03       5    8    1        -0.2497606348E-01      0.6075336493E-01
          0                 5           1             4    7     1       0.5331941919E-05       5    8    1         0.3165236535E-03      0.7699344006E-03

    ------------------------------------------------
       NWT REQUIRED            5 OUTER ITERATIONS 
       AND A TOTAL OF          9 INNER ITERATIONS.
    ------------------------------------------------

 NO OUTPUT CONTROL FOR STRESS PERIOD   21   TIME STEP   10
 
 SOLVING FOR HEAD 
                                                   Max.-Head-Change                         Max.-Flux-Residual
  Residual-Control   Outer-Iter.   Inner-Iter.     Column Row Layer    Maximum-Head-Change  Column Row Layer    Maximum-Flux-Residual          L2-NORM 
          0                 1           2             5    8     1       0.1109585298E+00       5    8    1         0.6023194376E+01      0.1471837066E+02
          0                 2           2             4    7     1      -0.1596515558E+00       5    8    1        -0.8722292011E+01      0.2122265021E+02
          0                 3           2             4    7     1       0.1087126986E-01       5    8    1         0.6105387206E+00      0.1485530488E+01
          0                 4           2             4    7     1      -0.4325785467E-03       5    8    1        -0.2497109522E-01      0.6075835591E-01
          0                 5           1             4    7     1       0.5333880000E-05       5    8    1         0.3164607092E-03      0.7700315140E-03

    ------------------------------------------------
       NWT REQUIRED            5 OUTER ITERATIONS 
       AND A TOTAL OF          9 INNER ITERATIONS.
    ------------------------------------------------

 NO OUTPUT CONTROL FOR STRESS PERIOD   21   TIME STEP   11
 
 SOLVING FOR HEAD 
                                                   Max.-Head-Change                         Max.-Flux-Residual
  Residual-Control   Outer-Iter.   Inner-Iter.     Column Row Layer    Maximum-Head-Change  Column Row Layer    Maximum-Flux-Residual          L2-NORM 
          0                 1           2             5    8     1       0.1107014447E+00       5    8    1         0.6007915749E+01      0.1471697352E+02
          0                 2           2             4    7     1      -0.1597271438E+00       5    8    1        -0.8720764188E+01      0.2122450003E+02
          0                 3           2             4    7     1       0.1087641624E-01       5    8    1         0.6104317843E+00      0.1485659934E+01
          0                 4           2             4    7     1      -0.4327833299E-03       5    8    1        -0.2496672146E-01      0.6076364790E-01
          0                 5           1             4    7     1       0.5336405150E-05       5    8    1         0.3164052605E-03      0.7700634137E-03

    ------------------------------------------------
       NWT REQUIRED            5 OUTER ITERATIONS 
       AND A TOTAL OF          9 INNER ITERATIONS.
    ------------------------------------------------

 NO OUTPUT CONTROL FOR STRESS PERIOD   21   TIME STEP   12
 
 SOLVING FOR HEAD 
                                                   Max.-Head-Change                         Max.-Flux-Residual
  Residual-Control   Outer-Iter.   Inner-Iter.     Column Row Layer    Maximum-Head-Change  Column Row Layer    Maximum-Flux-Residual          L2-NORM 
          0                 1           2             5    8     1       0.1104781135E+00       5    8    1         0.5994543549E+01      0.1471779816E+02
          0                 2           2             4    7     1      -0.1598001885E+00       5    8    1        -0.8719427007E+01      0.2122644863E+02
          0                 3           2             4    7     1       0.1088138947E-01       5    8    1         0.6103381917E+00      0.1485796297E+01
          0                 4           2             4    7     1      -0.4329812234E-03       5    8    1        -0.2496289348E-01      0.6076922484E-01
          0                 5           1             4    7     1       0.5338845169E-05       5    8    1         0.3163567467E-03      0.7701336490E-03

    ------------------------------------------------
       NWT REQUIRED            5 OUTER ITERATIONS 
       AND A TOTAL OF          9 INNER ITERATIONS.
    ------------------------------------------------

 NO OUTPUT CONTROL FOR STRESS PERIOD   21   TIME STEP   13
 
 SOLVING FOR HEAD 
                                                   Max.-Head-Change                         Max.-Flux-Residual
  Residual-Control   Outer-Iter.   Inner-Iter.     Column Row Layer    Maximum-Head-Change  Column Row Layer    Maximum-Flux-Residual          L2-NORM 
          0                 1           2             5    8     1       0.1102857656E+00       5    8    1         0.5982921400E+01      0.1472062639E+02
          0                 2           2             4    7     1      -0.1598708154E+00       5    8    1        -0.8718264829E+01      0.2122848539E+02
          0                 3           2             4    7     1       0.1088619809E-01       5    8    1         0.6102568484E+00      0.1485938843E+01
          0                 4           2             4    7     1      -0.4331725675E-03       5    8    1        -0.2495956649E-01      0.6077505583E-01
          0                 5           1             4    7     1       0.5341204986E-05       5    8    1         0.3163146007E-03      0.7702071250E-03

    ------------------------------------------------
       NWT REQUIRED            5 OUTER ITERATIONS 
       AND A TOTAL OF          9 INNER ITERATIONS.
    ------------------------------------------------

 NO OUTPUT CONTROL FOR STRESS PERIOD   21   TIME STEP   14
 
 SOLVING FOR HEAD 
                                                   Max.-Head-Change                         Max.-Flux-Residual
  Residual-Control   Outer-Iter.   Inner-Iter.     Column Row Layer    Maximum-Head-Change  Column Row Layer    Maximum-Flux-Residual          L2-NORM 
          0                 1           2             5    8     1       0.1101221431E+00       5    8    1         0.5972921232E+01      0.1472529924E+02
          0                 2           2             4    7     1      -0.1599391446E+00       5    8    1        -0.8717264848E+01      0.2123060322E+02
          0                 3           2             4    7     1       0.1089085029E-01       5    8    1         0.6101868579E+00      0.1486087058E+01
          0                 4           2             4    7     1      -0.4333576861E-03       5    8    1        -0.2495670384E-01      0.6078111818E-01
          0                 5           1             4    7     1       0.5343487288E-05       5    8    1         0.3162783082E-03      0.7702846868E-03

    ------------------------------------------------
       NWT REQUIRED            5 OUTER ITERATIONS 
       AND A TOTAL OF          9 INNER ITERATIONS.
    ------------------------------------------------

 NO OUTPUT CONTROL FOR STRESS PERIOD   21   TIME STEP   15
 
 SOLVING FOR HEAD 
                                                   Max.-Head-Change                         Max.-Flux-Residual
  Residual-Control   Outer-Iter.   Inner-Iter.     Column Row Layer    Maximum-Head-Change  Column Row Layer    Maximum-Flux-Residual          L2-NORM 
          0                 1           2             5    8     1       0.1099847568E+00       5    8    1         0.5964402614E+01      0.1473165375E+02
          0                 2           2             4    7     1      -0.1600052901E+00       5    8    1        -0.8716413022E+01      0.2123279435E+02
          0                 3           2             4    7     1       0.1089535382E-01       5    8    1         0.6101272373E+00      0.1486240405E+01
          0                 4           2             4    7     1      -0.4335368891E-03       5    8    1        -0.2495426532E-01      0.6078738992E-01
          0                 5           1             4    7     1       0.5345696893E-05       5    8    1         0.3162474145E-03      0.7703634089E-03

    ------------------------------------------------
       NWT REQUIRED            5 OUTER ITERATIONS 
       AND A TOTAL OF          9 INNER ITERATIONS.
    ------------------------------------------------

 NO OUTPUT CONTROL FOR STRESS PERIOD   21   TIME STEP   16
 
 SOLVING FOR HEAD 
                                                   Max.-Head-Change                         Max.-Flux-Residual
  Residual-Control   Outer-Iter.   Inner-Iter.     Column Row Layer    Maximum-Head-Change  Column Row Layer    Maximum-Flux-Residual          L2-NORM 
          0                 1           2             5    8     1       0.1098715959E+00       5    8    1         0.5957252060E+01      0.1473953878E+02
          0                 2           2             4    7     1      -0.1600693470E+00       5    8    1        -0.8715698001E+01      0.2123505080E+02
          0                 3           2             4    7     1       0.1089971515E-01       5    8    1         0.6100771923E+00      0.1486398326E+01
          0                 4           2             4    7     1      -0.4337104340E-03       5    8    1        -0.2495221845E-01      0.6079384964E-01
          0                 5           1             4    7     1       0.5347836936E-05       5    8    1         0.3162214762E-03      0.7704454288E-03

    ------------------------------------------------
       NWT REQUIRED            5 OUTER ITERATIONS 
       AND A TOTAL OF          9 INNER ITERATIONS.
    ------------------------------------------------

 NO OUTPUT CONTROL FOR STRESS PERIOD   21   TIME STEP   17
 
 SOLVING FOR HEAD 
                                                   Max.-Head-Change                         Max.-Flux-Residual
  Residual-Control   Outer-Iter.   Inner-Iter.     Column Row Layer    Maximum-Head-Change  Column Row Layer    Maximum-Flux-Residual          L2-NORM 
          0                 1           2             5    8     1       0.1097806820E+00       5    8    1         0.5951357534E+01      0.1474882372E+02
          0                 2           2             4    7     1      -0.1601314063E+00       5    8    1        -0.8715108581E+01      0.2123736685E+02
          0                 3           2             4    7     1       0.1090394049E-01       5    8    1         0.6100359388E+00      0.1486560421E+01
          0                 4           2             4    7     1      -0.4338785673E-03       5    8    1        -0.2495053115E-01      0.6080047985E-01
          0                 5           1             4    7     1       0.5349909995E-05       5    8    1         0.3162000849E-03      0.7705294074E-03

    ------------------------------------------------
       NWT REQUIRED            5 OUTER ITERATIONS 
       AND A TOTAL OF          9 INNER ITERATIONS.
    ------------------------------------------------

 NO OUTPUT CONTROL FOR STRESS PERIOD   21   TIME STEP   18
 
 SOLVING FOR HEAD 
                                                   Max.-Head-Change                         Max.-Flux-Residual
  Residual-Control   Outer-Iter.   Inner-Iter.     Column Row Layer    Maximum-Head-Change  Column Row Layer    Maximum-Flux-Residual          L2-NORM 
          0                 1           2             5    8     1       0.1097103310E+00       5    8    1         0.5946624248E+01      0.1475939312E+02
          0                 2           2             4    7     1      -0.1601915796E+00       5    8    1        -0.8714635286E+01      0.2123973672E+02
          0                 3           2             4    7     1       0.1090803742E-01       5    8    1         0.6100028131E+00      0.1486726283E+01
          0                 4           2             4    7     1      -0.4340415916E-03       5    8    1        -0.2494917628E-01      0.6080726387E-01
          0                 5           1             4    7     1       0.5351920325E-05       5    8    1         0.3161829177E-03      0.7706152686E-03

    ------------------------------------------------
       NWT REQUIRED            5 OUTER ITERATIONS 
       AND A TOTAL OF          9 INNER ITERATIONS.
    ------------------------------------------------

 NO OUTPUT CONTROL FOR STRESS PERIOD   21   TIME STEP   19
 
 SOLVING FOR HEAD 
                                                   Max.-Head-Change                         Max.-Flux-Residual
  Residual-Control   Outer-Iter.   Inner-Iter.     Column Row Layer    Maximum-Head-Change  Column Row Layer    Maximum-Flux-Residual          L2-NORM 
          0                 1           2             5    8     1       0.1096588595E+00       5    8    1         0.5942957095E+01      0.1477112792E+02
          0                 2           2             4    7     1      -0.1602499474E+00       5    8    1        -0.8714268602E+01      0.2124215466E+02
          0                 3           2             4    7     1       0.1091201144E-01       5    8    1         0.6099771497E+00      0.1486895510E+01
          0                 4           2             4    7     1      -0.4341997242E-03       5    8    1        -0.2494812663E-01      0.6081418494E-01
          0                 5           1             4    7     1       0.5353869607E-05       5    8    1         0.3161696091E-03      0.7707029819E-03

    ------------------------------------------------
       NWT REQUIRED            5 OUTER ITERATIONS 
       AND A TOTAL OF          9 INNER ITERATIONS.
    ------------------------------------------------

 NO OUTPUT CONTROL FOR STRESS PERIOD   21   TIME STEP   20
 
 SOLVING FOR HEAD 
                                                   Max.-Head-Change                         Max.-Flux-Residual
  Residual-Control   Outer-Iter.   Inner-Iter.     Column Row Layer    Maximum-Head-Change  Column Row Layer    Maximum-Flux-Residual          L2-NORM 
          0                 1           2             5    8     1       0.1096248601E+00       5    8    1         0.5940276582E+01      0.1478392702E+02
          0                 2           2             4    7     1      -0.1603065987E+00       5    8    1        -0.8714000583E+01      0.2124461508E+02
          0                 3           2             4    7     1       0.1091586860E-01       5    8    1         0.6099583923E+00      0.1487067712E+01
          0                 4           2             4    7     1      -0.4343532067E-03       5    8    1        -0.2494735943E-01      0.6082122912E-01
          0                 5           1             4    7     1       0.5355762434E-05       5    8    1         0.3161598906E-03      0.7707957301E-03

    ------------------------------------------------
       NWT REQUIRED            5 OUTER ITERATIONS 
       AND A TOTAL OF          9 INNER ITERATIONS.
    ------------------------------------------------

 NO OUTPUT CONTROL FOR STRESS PERIOD   21   TIME STEP   21
 
 SOLVING FOR HEAD 
                                                   Max.-Head-Change                         Max.-Flux-Residual
  Residual-Control   Outer-Iter.   Inner-Iter.     Column Row Layer    Maximum-Head-Change  Column Row Layer    Maximum-Flux-Residual          L2-NORM 
          0                 1           2             5    8     1       0.1096066179E+00       5    8    1         0.5938486389E+01      0.1479769456E+02
          0                 2           2             4    7     1      -0.1603616052E+00       5    8    1        -0.8713821594E+01      0.2124711355E+02
          0                 3           2             4    7     1       0.1091961378E-01       5    8    1         0.6099458664E+00      0.1487242578E+01
          0                 4           2             4    7     1      -0.4345022338E-03       5    8    1        -0.2494684711E-01      0.6082838126E-01
          0                 5           1             4    7     1       0.5357599925E-05       5    8    1         0.3161533919E-03      0.7708829343E-03

    ------------------------------------------------
       NWT REQUIRED            5 OUTER ITERATIONS 
       AND A TOTAL OF          9 INNER ITERATIONS.
    ------------------------------------------------

 NO OUTPUT CONTROL FOR STRESS PERIOD   21   TIME STEP   22
 
 SOLVING FOR HEAD 
                                                   Max.-Head-Change                         Max.-Flux-Residual
  Residual-Control   Outer-Iter.   Inner-Iter.     Column Row Layer    Maximum-Head-Change  Column Row Layer    Maximum-Flux-Residual          L2-NORM 
          0                 1           2             5    8     1       0.1096032550E+00       5    8    1         0.5937536521E+01      0.1481234882E+02
          0                 2           2             4    7     1      -0.1604150606E+00       5    8    1        -0.8713726638E+01      0.2124964599E+02
          0                 3           2             4    7     1       0.1092325336E-01       5    8    1         0.6099392224E+00      0.1487419819E+01
          0                 4           2             4    7     1      -0.4346470587E-03       5    8    1        -0.2494657535E-01      0.6083562929E-01
          0                 5           1             4    7     1       0.5359385666E-05       5    8    1         0.3161499649E-03      0.7709750212E-03

    ------------------------------------------------
       NWT REQUIRED            5 OUTER ITERATIONS 
       AND A TOTAL OF          9 INNER ITERATIONS.
    ------------------------------------------------

 NO OUTPUT CONTROL FOR STRESS PERIOD   21   TIME STEP   23
 
 SOLVING FOR HEAD 
                                                   Max.-Head-Change                         Max.-Flux-Residual
  Residual-Control   Outer-Iter.   Inner-Iter.     Column Row Layer    Maximum-Head-Change  Column Row Layer    Maximum-Flux-Residual          L2-NORM 
          0                 1           2             5    8     1       0.1096132634E+00       5    8    1         0.5937342545E+01      0.1482779792E+02
          0                 2           2             4    7     1      -0.1604670273E+00       5    8    1        -0.8713707270E+01      0.2125220712E+02
          0                 3           2             4    7     1       0.1092679158E-01       5    8    1         0.6099378690E+00      0.1487599078E+01
          0                 4           2             4    7     1      -0.4347878501E-03       5    8    1        -0.2494651999E-01      0.6084296340E-01
          0                 5           1             4    7     1       0.5361121560E-05       5    8    1         0.3161492637E-03      0.7710680488E-03

    ------------------------------------------------
       NWT REQUIRED            5 OUTER ITERATIONS 
       AND A TOTAL OF          9 INNER ITERATIONS.
    ------------------------------------------------

 NO OUTPUT CONTROL FOR STRESS PERIOD   21   TIME STEP   24
 
 SOLVING FOR HEAD 
                                                   Max.-Head-Change                         Max.-Flux-Residual
  Residual-Control   Outer-Iter.   Inner-Iter.     Column Row Layer    Maximum-Head-Change  Column Row Layer    Maximum-Flux-Residual          L2-NORM 
          0                 1           2             5    8     1       0.1096358132E+00       5    8    1         0.5937857408E+01      0.1484397843E+02
          0                 2           2             4    7     1      -0.1605175780E+00       5    8    1        -0.8713758786E+01      0.2125479422E+02
          0                 3           2             4    7     1       0.1093023341E-01       5    8    1         0.6099414772E+00      0.1487780149E+01
          0                 4           2             4    7     1      -0.4349248059E-03       5    8    1        -0.2494666754E-01      0.6085036838E-01
          0                 5           1             4    7     1       0.5362810295E-05       5    8    1         0.3161511399E-03      0.7711624123E-03

    ------------------------------------------------
       NWT REQUIRED            5 OUTER ITERATIONS 
       AND A TOTAL OF          9 INNER ITERATIONS.
    ------------------------------------------------

 NO OUTPUT CONTROL FOR STRESS PERIOD   21   TIME STEP   25
 
 SOLVING FOR HEAD 
                                                   Max.-Head-Change                         Max.-Flux-Residual
  Residual-Control   Outer-Iter.   Inner-Iter.     Column Row Layer    Maximum-Head-Change  Column Row Layer    Maximum-Flux-Residual          L2-NORM 
          0                 1           2             5    8     1       0.1096697229E+00       5    8    1         0.5939014738E+01      0.1486082377E+02
          0                 2           2             4    7     1      -0.1605667811E+00       5    8    1        -0.8713874548E+01      0.2125740345E+02
          0                 3           2             4    7     1       0.1093358348E-01       5    8    1         0.6099495821E+00      0.1487962771E+01
          0                 4           2             4    7     1      -0.4350581107E-03       5    8    1        -0.2494699903E-01      0.6085783759E-01
          0                 5           1             4    7     1       0.5364454225E-05       5    8    1         0.3161553318E-03      0.7712563398E-03

    ------------------------------------------------
       NWT REQUIRED            5 OUTER ITERATIONS 
       AND A TOTAL OF          9 INNER ITERATIONS.
    ------------------------------------------------

 NO OUTPUT CONTROL FOR STRESS PERIOD   21   TIME STEP   26
 
 SOLVING FOR HEAD 
                                                   Max.-Head-Change                         Max.-Flux-Residual
  Residual-Control   Outer-Iter.   Inner-Iter.     Column Row Layer    Maximum-Head-Change  Column Row Layer    Maximum-Flux-Residual          L2-NORM 
          0                 1           2             5    8     1       0.1097140454E+00       5    8    1         0.5940761048E+01      0.1487825901E+02
          0                 2           2             4    7     1      -0.1606146885E+00       5    8    1        -0.8714049208E+01      0.2126003109E+02
          0                 3           2             4    7     1       0.1093684535E-01       5    8    1         0.6099618096E+00      0.1488146681E+01
          0                 4           2             4    7     1      -0.4351879057E-03       5    8    1        -0.2494749914E-01      0.6086535981E-01
          0                 5           1             4    7     1       0.5366054581E-05       5    8    1         0.3161616532E-03      0.7713517266E-03

    ------------------------------------------------
       NWT REQUIRED            5 OUTER ITERATIONS 
       AND A TOTAL OF          9 INNER ITERATIONS.
    ------------------------------------------------

 NO OUTPUT CONTROL FOR STRESS PERIOD   21   TIME STEP   27
 
 SOLVING FOR HEAD 
                                                   Max.-Head-Change                         Max.-Flux-Residual
  Residual-Control   Outer-Iter.   Inner-Iter.     Column Row Layer    Maximum-Head-Change  Column Row Layer    Maximum-Flux-Residual          L2-NORM 
          0                 1           2             5    8     1       0.1097680387E+00       5    8    1         0.5943055031E+01      0.1489623182E+02
          0                 2           2             4    7     1      -0.1606613620E+00       5    8    1        -0.8714278635E+01      0.2126267410E+02
          0                 3           2             4    7     1       0.1094002321E-01       5    8    1         0.6099778704E+00      0.1488331669E+01
          0                 4           2             4    7     1      -0.4353143581E-03       5    8    1        -0.2494815601E-01      0.6087292585E-01
          0                 5           1             4    7     1       0.5367613827E-05       5    8    1         0.3161699865E-03      0.7714532020E-03

    ------------------------------------------------
       NWT REQUIRED            5 OUTER ITERATIONS 
       AND A TOTAL OF          9 INNER ITERATIONS.
    ------------------------------------------------

 NO OUTPUT CONTROL FOR STRESS PERIOD   21   TIME STEP   28
 
 SOLVING FOR HEAD 
                                                   Max.-Head-Change                         Max.-Flux-Residual
  Residual-Control   Outer-Iter.   Inner-Iter.     Column Row Layer    Maximum-Head-Change  Column Row Layer    Maximum-Flux-Residual          L2-NORM 
          0                 1           2             5    8     1       0.1098308895E+00       5    8    1         0.5945850426E+01      0.1491469539E+02
          0                 2           2             4    7     1      -0.1607068733E+00       5    8    1        -0.8714558203E+01      0.2126533059E+02
          0                 3           2             4    7     1       0.1094312195E-01       5    8    1         0.6099974408E+00      0.1488517601E+01
          0                 4           2             4    7     1      -0.4354376619E-03       5    8    1        -0.2494895644E-01      0.6088053066E-01
          0                 5           1             4    7     1       0.5369134429E-05       5    8    1         0.3161801365E-03      0.7715440355E-03

    ------------------------------------------------
       NWT REQUIRED            5 OUTER ITERATIONS 
       AND A TOTAL OF          9 INNER ITERATIONS.
    ------------------------------------------------

 NO OUTPUT CONTROL FOR STRESS PERIOD   21   TIME STEP   29
 
 SOLVING FOR HEAD 
                                                   Max.-Head-Change                         Max.-Flux-Residual
  Residual-Control   Outer-Iter.   Inner-Iter.     Column Row Layer    Maximum-Head-Change  Column Row Layer    Maximum-Flux-Residual          L2-NORM 
          0                 1           2             5    8     1       0.1099018423E+00       5    8    1         0.5949105060E+01      0.1493359182E+02
          0                 2           2             4    7     1      -0.1607512512E+00       5    8    1        -0.8714883694E+01      0.2126799700E+02
          0                 3           2             4    7     1       0.1094614352E-01       5    8    1         0.6100202255E+00      0.1488704227E+01
          0                 4           2             4    7     1      -0.4355578945E-03       5    8    1        -0.2494988834E-01      0.6088816394E-01
          0                 5           1             4    7     1       0.5370616833E-05       5    8    1         0.3161919453E-03      0.7716409502E-03

    ------------------------------------------------
       NWT REQUIRED            5 OUTER ITERATIONS 
       AND A TOTAL OF          9 INNER ITERATIONS.
    ------------------------------------------------

 NO OUTPUT CONTROL FOR STRESS PERIOD   21   TIME STEP   30



 STREAM LISTING     PERIOD     21   STEP       30

 LAYER ROW COL. STREAM  RCH.  FLOW INTO     FLOW TO   FLOW OUT OF   OVRLND.     DIRECT     STREAM       STREAM     STREAM     STREAM   STREAMBED  STREAMBED
                SEG.NO.  NO.  STRM. RCH.    AQUIFER    STRM. RCH.    RUNOFF     PRECIP       ET          HEAD       DEPTH      WIDTH   CONDCTNC.   GRADIENT

   1    1    1     1     1    3.7001E+01  2.9351E-01   3.6707E+01  0.000E+00  0.000E+00  0.000E+00  1.09436E+03  1.308E+00  1.514E+01  6.812E-02  1.436E+00
   1    2    2     1     2    3.6707E+01  4.5449E-01   3.6253E+01  0.000E+00  0.000E+00  0.000E+00  1.08936E+03  1.305E+00  1.508E+01  1.056E-01  1.435E+00
   1    3    3     1     3    3.6253E+01  3.8754E-01   3.5865E+01  0.000E+00  0.000E+00  0.000E+00  1.08372E+03  1.302E+00  1.501E+01  9.008E-02  1.434E+00
   1    3    4     1     4    3.5865E+01  3.5682E-01   3.5508E+01  0.000E+00  0.000E+00  0.000E+00  1.07871E+03  1.299E+00  1.495E+01  8.300E-02  1.433E+00
   1    4    5     2     1    3.3508E+01  3.4594E-01   3.3162E+01  0.000E+00  0.000E+00  0.000E+00  1.07337E+03  1.435E+00  1.200E+01  7.800E-02  1.478E+00
   1    5    6     2     2    3.3162E+01  2.6563E-01   3.2897E+01  0.000E+00  0.000E+00  0.000E+00  1.06794E+03  1.427E+00  1.200E+01  6.000E-02  1.476E+00
   1    6    6     2     3    3.2897E+01  2.6522E-01   3.2631E+01  0.000E+00  0.000E+00  0.000E+00  1.06321E+03  1.420E+00  1.200E+01  6.000E-02  1.473E+00
   1    7    6     2     4    3.2631E+01  2.6480E-01   3.2367E+01  0.000E+00  0.000E+00  0.000E+00  1.05849E+03  1.413E+00  1.200E+01  6.000E-02  1.471E+00
   1    8    6     2     5    3.2367E+01  2.6439E-01   3.2102E+01  0.000E+00  0.000E+00  0.000E+00  1.05377E+03  1.406E+00  1.200E+01  6.000E-02  1.469E+00
   1    3    5     3     1    2.0000E+00  2.8252E-01   1.7175E+00  0.000E+00  0.000E+00  0.000E+00  1.07555E+03  1.909E+00  9.636E+00  7.227E-02  1.955E+00
   1    3    6     3     2    1.7175E+00  2.4905E-01   1.4684E+00  0.000E+00  0.000E+00  0.000E+00  1.07264E+03  1.727E+00  8.909E+00  6.682E-02  1.864E+00
   1    3    7     3     3    1.4684E+00  1.9718E-01   1.2712E+00  0.000E+00  0.000E+00  0.000E+00  1.06987E+03  1.555E+00  8.218E+00  5.547E-02  1.777E+00
   1    4    8     3     4    1.2712E+00  2.2567E-01   1.0456E+00  0.000E+00  0.000E+00  0.000E+00  1.06682E+03  1.364E+00  7.455E+00  6.709E-02  1.682E+00
   1    5    8     3     5    1.0456E+00  1.5790E-01   8.8768E-01  0.000E+00  0.000E+00  0.000E+00  1.06362E+03  1.164E+00  6.655E+00  4.991E-02  1.582E+00
   1    6    8     3     6    8.8768E-01  5.5980E-02   8.3170E-01  0.000E+00  0.000E+00  0.000E+00  1.06158E+03  1.036E+00  6.145E+00  1.844E-02  1.518E+00
   1    5   10     4     1    1.0000E+01  9.0919E-02   9.9091E+00  0.000E+00  0.000E+00  0.000E+00  1.07836E+03  6.368E-01  1.000E+01  2.500E-02  1.212E+00
   1    5    9     4     2    9.9091E+00  1.8158E-01   9.7275E+00  0.000E+00  0.000E+00  0.000E+00  1.07154E+03  6.315E-01  1.000E+01  5.000E-02  1.211E+00
   1    6    8     4     3    9.7275E+00  1.2689E-01   9.6006E+00  0.000E+00  0.000E+00  0.000E+00  1.06381E+03  6.256E-01  1.000E+01  3.500E-02  1.209E+00
   1    6    8     5     1    1.0432E+01  2.2686E-01   1.0205E+01  0.000E+00  0.000E+00  0.000E+00  1.05868E+03  6.790E-01  1.542E+01  6.166E-02  1.226E+00
   1    7    7     5     2    1.0205E+01  2.7894E-01   9.9265E+00  0.000E+00  0.000E+00  0.000E+00  1.05417E+03  6.732E-01  1.519E+01  7.594E-02  1.224E+00
   1    8    7     5     3    9.9265E+00  1.9221E-01   9.7343E+00  0.000E+00  0.000E+00  0.000E+00  1.04992E+03  6.676E-01  1.497E+01  5.241E-02  1.223E+00
   1    8    6     5     4    9.7343E+00  1.3577E-01   9.5985E+00  0.000E+00  0.000E+00  0.000E+00  1.04691E+03  6.637E-01  1.482E+01  3.706E-02  1.221E+00
   1    9    6     6     1    4.1701E+01  2.7939E-01   4.1421E+01  0.000E+00  0.000E+00  0.000E+00  1.04438E+03  1.656E+00  1.200E+01  6.000E-02  1.552E+00
   1   10    7     6     2    4.1421E+01  2.7899E-01   4.1142E+01  0.000E+00  0.000E+00  0.000E+00  1.03983E+03  1.650E+00  1.200E+01  6.000E-02  1.550E+00
   1   11    7     6     3    4.1142E+01  2.7859E-01   4.0864E+01  0.000E+00  0.000E+00  0.000E+00  1.03528E+03  1.643E+00  1.200E+01  6.000E-02  1.548E+00
   1   12    7     6     4    4.0864E+01  2.7818E-01   4.0586E+01  0.000E+00  0.000E+00  0.000E+00  1.03073E+03  1.636E+00  1.200E+01  6.000E-02  1.545E+00
   1   13    7     6     5    4.0586E+01  1.1418E-02   4.0574E+01  0.000E+00  0.000E+00  0.000E+00  1.02754E+03  1.633E+00  1.200E+01  2.400E-02  1.586E-01
   1   14    9     7     1    1.5000E+02  1.3335E+00   1.4867E+02  0.000E+00  0.000E+00  0.000E+00  1.03987E+03  2.288E+00  5.529E+01  5.593E-01  7.947E-01
   1   13    8     7     2    1.4867E+02  1.8341E+00   1.4683E+02  0.000E+00  0.000E+00  0.000E+00  1.03478E+03  2.279E+00  5.526E+01  6.148E-01  9.945E-01
   1   13    7     7     3    1.4683E+02  1.4652E+00   1.4537E+02  0.000E+00  0.000E+00  0.000E+00  1.02969E+03  2.270E+00  5.522E+01  5.585E-01  8.745E-01
   1   13    6     8     1    1.8594E+02  9.7989E-01   1.8496E+02  0.000E+00  0.000E+00  0.000E+00  1.02493E+03  3.050E+00  4.423E+01  4.507E-01  7.247E-01
   1   13    5     8     2    1.8496E+02  2.0889E-01   1.8475E+02  0.000E+00  0.000E+00  0.000E+00  1.01867E+03  3.046E+00  4.417E+01  4.501E-01  1.547E-01
   1   13    4     8     3    1.8475E+02 -2.3579E+00   1.8711E+02  0.000E+00  0.000E+00  0.000E+00  1.01243E+03  3.053E+00  4.427E+01  4.511E+00 -1.742E-01
   1   13    3     8     4    1.8711E+02 -3.6212E+00   1.9073E+02  0.000E+00  0.000E+00  0.000E+00  1.00620E+03  3.071E+00  4.453E+01  4.538E+00 -2.660E-01
   1   13    2     8     5    1.9073E+02 -2.5890E+00   1.9332E+02  0.000E+00  0.000E+00  0.000E+00  9.99965E+02  3.090E+00  4.481E+01  4.566E+00 -1.890E-01
   1   13    1     8     6    1.9332E+02 -2.0213E+00   1.9534E+02  0.000E+00  0.000E+00  0.000E+00  9.94979E+02  3.104E+00  4.501E+01  2.752E+00 -2.448E-01





UNSATURATED ZONE PACKAGE VOLUMETRIC BUDGET FOR  TIME STEP    30 STRESS PERIOD   21
  ------------------------------------------------------------------------------



     CUMULATIVE VOLUMES      L**3       RATES FOR THIS TIME STEP      L**3/T
     ------------------                 ------------------------

           IN:                                      IN:
           ---                                      ---
        INFILTRATION =   885239912.3936          INFILTRATION =          49.5675

          OUT:                                     OUT:
          ----                                     ----
              UZF ET =   809300633.4723                UZF ET =          49.5675
        UZF RECHARGE =    37934422.1554          UZF RECHARGE =       0.0000E+00

            IN - OUT =    38004856.7658              IN - OUT =       0.0000E+00

          STORAGE:                                 STORAGE:
          --------                                 --------
      STORAGE CHANGE =    38004857.8355        STORAGE CHANGE =       8.8971E-13

 PERCENT DISCREPANCY IS DIFFERENCE BETWEEN IN-OUT MINUS CHANGE IN STORAGE
 DIVIDED BY THE AVERAGE OF IN AND OUT TIMES 100

 PERCENT DISCREPANCY =           0.00     PERCENT DISCREPANCY =           0.00






1
  VOLUMETRIC BUDGET FOR AGRICULTURAL FIELDS AT  END OF TIME STEP   30, STRESS PERIOD  21
  ------------------------------------------------------------------------------

     CUMULATIVE VOLUMES      L**3       RATES FOR THIS TIME STEP      L**3/T
     ------------------                 ------------------------

           IN:                                      IN:
           ---                                      ---
               AG WELLS  =   840587072.0000                 AG WELLS  =          48.7200
      DIVERSION SEGMENTS =           0.0000        DIVERSION SEGMENTS =           0.0000
       IRRIGATION PONDS  =           0.0000         IRRIGATION PONDS  =           0.0000
           GW IRRIGATION =           0.0000             GW IRRIGATION =           0.0000
           SW IRRIGATION =           0.0000             SW IRRIGATION =           0.0000
        SYSTEM LOSSES GW =           0.0000          SYSTEM LOSSES GW =           0.0000
        SYSTEM LOSSES SW =           0.0000          SYSTEM LOSSES SW =           0.0000

                TOTAL IN =   840587072.0000                  TOTAL IN =          48.7200

          OUT:                                     OUT:
          ----                                     ----
               AG WELLS  =           0.0000                 AG WELLS  =           0.0000
      DIVERSION SEGMENTS =           0.0000        DIVERSION SEGMENTS =           0.0000
       IRRIGATION PONDS  =           0.0000         IRRIGATION PONDS  =           0.0000
           GW IRRIGATION =   840587072.0000             GW IRRIGATION =          48.7200
           SW IRRIGATION =           0.0000             SW IRRIGATION =           0.0000
        SYSTEM LOSSES GW =           0.0000          SYSTEM LOSSES GW =           0.0000
        SYSTEM LOSSES SW =           0.0000          SYSTEM LOSSES SW =           0.0000

               TOTAL OUT =   840587072.0000                 TOTAL OUT =          48.7200

                IN - OUT =           0.0000                  IN - OUT =           0.0000

     PERCENT DISCREPANCY =           0.00         PERCENT DISCREPANCY =           0.00



1
  VOLUMETRIC BUDGET FOR ENTIRE MODEL AT END OF TIME STEP   30, STRESS PERIOD  21
  ------------------------------------------------------------------------------

     CUMULATIVE VOLUMES      L**3       RATES FOR THIS TIME STEP      L**3/T
     ------------------                 ------------------------

           IN:                                      IN:
           ---                                      ---
             STORAGE     =   986678016.0000               STORAGE     =          47.3028
       CONSTANT HEAD     =           0.0000         CONSTANT HEAD     =           0.0000
     HEAD DEP BOUNDS     =    15038135.0000       HEAD DEP BOUNDS     =           0.2856
      STREAM LEAKAGE     =   661844992.0000        STREAM LEAKAGE     =          12.2479
        UZF RECHARGE     =    37934444.0000          UZF RECHARGE     =           0.0000
               GW ET     =           0.0000                 GW ET     =           0.0000
     SURFACE LEAKAGE     =           0.0000       SURFACE LEAKAGE     =           0.0000
           AG WELLS      =           0.0000             AG WELLS      =           0.0000

                TOTAL IN =  1701495680.0000                  TOTAL IN =          59.8364

          OUT:                                     OUT:
          ----                                     ----
             STORAGE     =   283930432.0000               STORAGE     =           0.2339
       CONSTANT HEAD     =           0.0000         CONSTANT HEAD     =           0.0000
     HEAD DEP BOUNDS     =    15529320.0000       HEAD DEP BOUNDS     =           0.2931
      STREAM LEAKAGE     =   543845312.0000        STREAM LEAKAGE     =          10.5893
        UZF RECHARGE     =           0.0000          UZF RECHARGE     =           0.0000
               GW ET     =    17607784.0000                 GW ET     =           0.0000
     SURFACE LEAKAGE     =           0.0000       SURFACE LEAKAGE     =           0.0000
           AG WELLS      =   840587072.0000             AG WELLS      =          48.7200

               TOTAL OUT =  1701499904.0000                 TOTAL OUT =          59.8363

                IN - OUT =       -4224.0000                  IN - OUT =       3.0518E-05

     PERCENT DISCREPANCY =          -0.00         PERCENT DISCREPANCY =           0.00






         TIME SUMMARY AT END OF TIME STEP   30 IN STRESS PERIOD   21
                    SECONDS     MINUTES      HOURS       DAYS        YEARS
                    -----------------------------------------------------------
   TIME STEP LENGTH  87667.      1461.1      24.352      1.0147     2.77799E-03
 STRESS PERIOD TIME 2.63000E+06  43833.      730.56      30.440     8.33397E-02
         TOTAL TIME 5.26866E+07 8.78110E+05  14635.      609.80      1.6695    
1
1
                            STRESS PERIOD NO.   22, LENGTH =   2630000.    
                            -----------------------------------------------

                              NUMBER OF TIME STEPS =    30

                               MULTIPLIER FOR DELT =     1.000

                            INITIAL TIME STEP SIZE =   87666.66    

 REUSING NON-PARAMETER GHB CELLS FROM LAST STRESS PERIOD

      2 GHB CELLS

 REUSING STREAM SEGMENT DATA FROM LAST STRESS PERIOD



            AREAL INFILTRATION RATE
 READING ON UNIT   19 WITH FORMAT: (FREE)              

            1           2           3           4           5           6           7           8           9          10
 ........................................................................................................................
   1   1.0000E-10  2.0000E-10   0.000       0.000       0.000       0.000       0.000       0.000       0.000       0.000    
   2   2.0000E-10  1.0000E-10  2.0000E-10   0.000       0.000      8.0000E-10  8.0000E-10  5.0000E-10   0.000       0.000    
   3    0.000      5.0000E-10  1.0000E-10  1.0000E-10  8.0000E-10  8.0000E-10  5.0000E-10  5.0000E-10   0.000       0.000    
   4   8.0000E-10  5.0000E-10  1.0000E-10  1.0000E-10  1.0000E-10  1.0000E-10  1.0000E-10  1.0000E-10  2.0000E-10   0.000    
   5   8.0000E-10  5.0000E-10  1.0000E-10  1.0000E-10  1.0000E-10  1.0000E-10  1.0000E-10  1.0000E-10  1.0000E-10  1.0000E-10
   6   8.0000E-10  5.0000E-10  5.0000E-10  2.0000E-10  2.0000E-10  1.0000E-10  1.0000E-10  1.0000E-10  1.0000E-10  5.0000E-10
   7   8.0000E-10  5.0000E-10  5.0000E-10  2.0000E-10  2.0000E-10  1.0000E-10  1.0000E-10  2.0000E-10  2.0000E-10   0.000    
   8    0.000      5.0000E-10  5.0000E-10  2.0000E-10  2.0000E-10  1.0000E-10  1.0000E-10  2.0000E-10  5.0000E-10   0.000    
   9    0.000      5.0000E-10  5.0000E-10  2.0000E-10  2.0000E-10  1.0000E-10  1.0000E-10  2.0000E-10  5.0000E-10   0.000    
  10    0.000      5.0000E-10  5.0000E-10  2.0000E-10  2.0000E-10  1.0000E-10  1.0000E-10  2.0000E-10  5.0000E-10  8.0000E-10
  11    0.000      1.0000E-10  1.0000E-10  1.0000E-10  1.0000E-10  1.0000E-10  1.0000E-10  2.0000E-10  5.0000E-10   0.000    
  12   1.0000E-10  1.0000E-10  1.0000E-10  1.0000E-10  1.0000E-10  1.0000E-10  1.0000E-10  1.0000E-10  2.0000E-10   0.000    
  13   1.0000E-10  1.0000E-10  2.0000E-10  2.0000E-10  2.0000E-10  2.0000E-10  2.0000E-10  1.0000E-10  1.0000E-10   0.000    
  14    0.000      2.0000E-10  5.0000E-10  5.0000E-10  5.0000E-10  5.0000E-10  5.0000E-10  2.0000E-10  1.0000E-10   0.000    
  15    0.000       0.000      8.0000E-10  8.0000E-10  8.0000E-10  8.0000E-10   0.000       0.000       0.000       0.000    

                  ET RATE =  7.500000E-08

 USING ET EXTINCTION DEPTH FROM PREVIOUS STRESS PERIOD. CURRENT PERIOD IS:      22

 USING EXTINCTION WATER CONTENT FROM PREVIOUS STRESS PERIOD. CURRENT PERIOD IS:      22

 USING AIR ENTRY PRESSURE FROM PREVIOUS STRESS PERIOD. CURRENT PERIOD IS:      22

 USING ROOT PRESSURE HEAD FROM PREVIOUS STRESS PERIOD. CURRENT PERIOD IS:      22

 USING ROOT ACTIVITY FROM PREVIOUS STRESS PERIOD. CURRENT PERIOD IS:      22

 PROCESSING AG STRESS PERIOD DATA

 READING AG STRESS PERIOD DATA

 READING IRRIGATION WELL

 NO IRRPOND OR REUSING IRRPOND DATA FROM LAST STRESS PERIOD

 END PROCESSING AG STRESS PERIOD DATA OPTIONS
 
 SOLVING FOR HEAD 
                                                   Max.-Head-Change                         Max.-Flux-Residual
  Residual-Control   Outer-Iter.   Inner-Iter.     Column Row Layer    Maximum-Head-Change  Column Row Layer    Maximum-Flux-Residual          L2-NORM 
          0                 1           2             5    8     1       0.7496768286E-01       5    8    1         0.4077771932E+01      0.1091556949E+02
          0                 2           2             5    8     1      -0.7292181473E-02       5    8    1        -0.4077681734E+00      0.1091482436E+01
          0                 3           2             5    8     1       0.4965718148E-03       5    8    1         0.2854387094E-01      0.7639961766E-01
          0                 4           1             5    8     1      -0.1975905164E-04       5    8    1        -0.1167445540E-02      0.3124505535E-02

    ------------------------------------------------
       NWT REQUIRED            4 OUTER ITERATIONS 
       AND A TOTAL OF          7 INNER ITERATIONS.
    ------------------------------------------------

 NO OUTPUT CONTROL FOR STRESS PERIOD   22   TIME STEP    1
 
 SOLVING FOR HEAD 
                                                   Max.-Head-Change                         Max.-Flux-Residual
  Residual-Control   Outer-Iter.   Inner-Iter.     Column Row Layer    Maximum-Head-Change  Column Row Layer    Maximum-Flux-Residual          L2-NORM 
          0                 1           2             5    8     1       0.1066857665E+00       5    8    1         0.5770718308E+01      0.1465013317E+02
          0                 2           2             5    7     1      -0.4443474901E-01       5    8    1        -0.2440464857E+01      0.5939165415E+01
          0                 3           2             5    7     1       0.3025581676E-02       5    8    1         0.1708182991E+00      0.4157056846E+00
          0                 4           2             5    7     1      -0.1203907508E-03       5    8    1        -0.6986478762E-02      0.1700233153E-01
          0                 5           1             5    7     1       0.1484471347E-05       5    8    1         0.8854023190E-04      0.2154718675E-03

    ------------------------------------------------
       NWT REQUIRED            5 OUTER ITERATIONS 
       AND A TOTAL OF          9 INNER ITERATIONS.
    ------------------------------------------------

 NO OUTPUT CONTROL FOR STRESS PERIOD   22   TIME STEP    2
 
 SOLVING FOR HEAD 
                                                   Max.-Head-Change                         Max.-Flux-Residual
  Residual-Control   Outer-Iter.   Inner-Iter.     Column Row Layer    Maximum-Head-Change  Column Row Layer    Maximum-Flux-Residual          L2-NORM 
          0                 1           2             5    8     1       0.1035887754E+00       5    8    1         0.5599416214E+01      0.1434036552E+02
          0                 2           2             5    7     1      -0.4441102738E-01       5    8    1        -0.2429918016E+01      0.5928474632E+01
          0                 3           2             5    7     1       0.3023963686E-02       5    8    1         0.1700798989E+00      0.4149570961E+00
          0                 4           2             5    7     1      -0.1203263719E-03       5    8    1        -0.6956278149E-02      0.1697172276E-01
          0                 5           1             5    7     1       0.1483677946E-05       5    8    1         0.8815748424E-04      0.2150861045E-03

    ------------------------------------------------
       NWT REQUIRED            5 OUTER ITERATIONS 
       AND A TOTAL OF          9 INNER ITERATIONS.
    ------------------------------------------------

 NO OUTPUT CONTROL FOR STRESS PERIOD   22   TIME STEP    3
 
 SOLVING FOR HEAD 
                                                   Max.-Head-Change                         Max.-Flux-Residual
  Residual-Control   Outer-Iter.   Inner-Iter.     Column Row Layer    Maximum-Head-Change  Column Row Layer    Maximum-Flux-Residual          L2-NORM 
          0                 1           2             5    6     1       0.1008019667E+00       5    8    1         0.5438674875E+01      0.1404660624E+02
          0                 2           2             5    7     1      -0.4426829608E-01       5    8    1        -0.2413844362E+01      0.5902937291E+01
          0                 3           2             5    7     1       0.3014243811E-02       5    8    1         0.1689547421E+00      0.4131695371E+00
          0                 4           2             5    7     1      -0.1199396108E-03       5    8    1        -0.6910259197E-02      0.1689861220E-01
          0                 5           1             5    7     1       0.1478908691E-05       5    8    1         0.8757428213E-04      0.2141576727E-03

    ------------------------------------------------
       NWT REQUIRED            5 OUTER ITERATIONS 
       AND A TOTAL OF          9 INNER ITERATIONS.
    ------------------------------------------------

 NO OUTPUT CONTROL FOR STRESS PERIOD   22   TIME STEP    4
 
 SOLVING FOR HEAD 
                                                   Max.-Head-Change                         Max.-Flux-Residual
  Residual-Control   Outer-Iter.   Inner-Iter.     Column Row Layer    Maximum-Head-Change  Column Row Layer    Maximum-Flux-Residual          L2-NORM 
          0                 1           2             5    7     1       0.9909084131E-01       5    6    1         0.5291352284E+01      0.1376734986E+02
          0                 2           2             4    7     1      -0.4422699379E-01       5    6    1        -0.2399112196E+01      0.5878494979E+01
          0                 3           2             4    7     1       0.3011426971E-02       5    6    1         0.1679234846E+00      0.4114586252E+00
          0                 4           2             4    7     1      -0.1198275339E-03       5    6    1        -0.6868080721E-02      0.1682864855E-01
          0                 5           1             4    7     1       0.1477525307E-05       5    6    1         0.8703975391E-04      0.2132708904E-03

    ------------------------------------------------
       NWT REQUIRED            5 OUTER ITERATIONS 
       AND A TOTAL OF          9 INNER ITERATIONS.
    ------------------------------------------------

 NO OUTPUT CONTROL FOR STRESS PERIOD   22   TIME STEP    5
 
 SOLVING FOR HEAD 
                                                   Max.-Head-Change                         Max.-Flux-Residual
  Residual-Control   Outer-Iter.   Inner-Iter.     Column Row Layer    Maximum-Head-Change  Column Row Layer    Maximum-Flux-Residual          L2-NORM 
          0                 1           2             5    7     1       0.9767384474E-01       5    7    1         0.5177106104E+01      0.1350156564E+02
          0                 2           2             4    7     1      -0.4419017463E-01       5    7    1        -0.2387693539E+01      0.5855080863E+01
          0                 3           2             4    7     1       0.3008919237E-02       5    7    1         0.1671238565E+00      0.4098196711E+00
          0                 4           2             4    7     1      -0.1197277511E-03       5    7    1        -0.6835377393E-02      0.1676162229E-01
          0                 5           1             4    7     1       0.1476294936E-05       5    7    1         0.8662529717E-04      0.2124212832E-03

    ------------------------------------------------
       NWT REQUIRED            5 OUTER ITERATIONS 
       AND A TOTAL OF          9 INNER ITERATIONS.
    ------------------------------------------------

 NO OUTPUT CONTROL FOR STRESS PERIOD   22   TIME STEP    6
 
 SOLVING FOR HEAD 
                                                   Max.-Head-Change                         Max.-Flux-Residual
  Residual-Control   Outer-Iter.   Inner-Iter.     Column Row Layer    Maximum-Head-Change  Column Row Layer    Maximum-Flux-Residual          L2-NORM 
          0                 1           2             5    7     1       0.9628394977E-01       5    7    1         0.5103464885E+01      0.1324832400E+02
          0                 2           2             4    7     1      -0.4414942207E-01       5    7    1        -0.2380330029E+01      0.5832633933E+01
          0                 3           2             4    7     1       0.3006143690E-02       5    7    1         0.1666083913E+00      0.4082484136E+00
          0                 4           2             4    7     1      -0.1196173118E-03       5    7    1        -0.6814294914E-02      0.1669736066E-01
          0                 5           1             4    7     1       0.1474933060E-05       5    7    1         0.8635812173E-04      0.2116071613E-03

    ------------------------------------------------
       NWT REQUIRED            5 OUTER ITERATIONS 
       AND A TOTAL OF          9 INNER ITERATIONS.
    ------------------------------------------------

 NO OUTPUT CONTROL FOR STRESS PERIOD   22   TIME STEP    7
 
 SOLVING FOR HEAD 
                                                   Max.-Head-Change                         Max.-Flux-Residual
  Residual-Control   Outer-Iter.   Inner-Iter.     Column Row Layer    Maximum-Head-Change  Column Row Layer    Maximum-Flux-Residual          L2-NORM 
          0                 1           2             4    7     1       0.9517885474E-01       5    7    1         0.5031228992E+01      0.1300675384E+02
          0                 2           2             4    7     1      -0.4410508676E-01       5    7    1        -0.2373106977E+01      0.5811096011E+01
          0                 3           2             4    7     1       0.3003124208E-02       5    7    1         0.1661027603E+00      0.4067407759E+00
          0                 4           2             4    7     1      -0.1194971655E-03       5    7    1        -0.6793614646E-02      0.1663570289E-01
          0                 5           1             4   13     1      -0.4030698615E-05       4   13    1        -0.2607780134E-03      0.3354117056E-03

    ------------------------------------------------
       NWT REQUIRED            5 OUTER ITERATIONS 
       AND A TOTAL OF          9 INNER ITERATIONS.
    ------------------------------------------------

 NO OUTPUT CONTROL FOR STRESS PERIOD   22   TIME STEP    8
 
 SOLVING FOR HEAD 
                                                   Max.-Head-Change                         Max.-Flux-Residual
  Residual-Control   Outer-Iter.   Inner-Iter.     Column Row Layer    Maximum-Head-Change  Column Row Layer    Maximum-Flux-Residual          L2-NORM 
          0                 1           2             4    7     1       0.9468946904E-01       5    7    1         0.4960446339E+01      0.1277607474E+02
          0                 2           2             4    7     1      -0.4405748639E-01       5    7    1        -0.2366029186E+01      0.5790415568E+01
          0                 3           2             4    7     1       0.2999882421E-02       5    7    1         0.1656072993E+00      0.4052931666E+00
          0                 4           2             4    7     1      -0.1193681738E-03       5    7    1        -0.6773350353E-02      0.1657649915E-01
          0                 5           1             4    7     1       0.1471861277E-05       5    7    1         0.8583922408E-04      0.2100751160E-03

    ------------------------------------------------
       NWT REQUIRED            5 OUTER ITERATIONS 
       AND A TOTAL OF          9 INNER ITERATIONS.
    ------------------------------------------------

 NO OUTPUT CONTROL FOR STRESS PERIOD   22   TIME STEP    9
 
 SOLVING FOR HEAD 
                                                   Max.-Head-Change                         Max.-Flux-Residual
  Residual-Control   Outer-Iter.   Inner-Iter.     Column Row Layer    Maximum-Head-Change  Column Row Layer    Maximum-Flux-Residual          L2-NORM 
          0                 1           2             4    7     1       0.9416962239E-01       4    7    1         0.4928465769E+01      0.1255555947E+02
          0                 2           2             4    7     1      -0.4400691928E-01       4    7    1        -0.2362833921E+01      0.5770543488E+01
          0                 3           2             4    7     1       0.2996438643E-02       4    7    1         0.1653834899E+00      0.4039021228E+00
          0                 4           2             4    7     1      -0.1192311441E-03       4    7    1        -0.6764197172E-02      0.1651959988E-01
          0                 5           1             4    7     1       0.1470171533E-05       4    7    1         0.8572321485E-04      0.2093564721E-03

    ------------------------------------------------
       NWT REQUIRED            5 OUTER ITERATIONS 
       AND A TOTAL OF          9 INNER ITERATIONS.
    ------------------------------------------------

 NO OUTPUT CONTROL FOR STRESS PERIOD   22   TIME STEP   10
 
 SOLVING FOR HEAD 
                                                   Max.-Head-Change                         Max.-Flux-Residual
  Residual-Control   Outer-Iter.   Inner-Iter.     Column Row Layer    Maximum-Head-Change  Column Row Layer    Maximum-Flux-Residual          L2-NORM 
          0                 1           2             4    7     1       0.9362246357E-01       4    7    1         0.4901462246E+01      0.1234456704E+02
          0                 2           2             4    7     1      -0.4395369203E-01       4    7    1        -0.2360134038E+01      0.5751436747E+01
          0                 3           2             4    7     1       0.2992813748E-02       4    7    1         0.1651944774E+00      0.4025646626E+00
          0                 4           2             4    7     1      -0.1190869079E-03       4    7    1        -0.6756466659E-02      0.1646490442E-01
          0                 5           1             4    7     1       0.1468393186E-05       4    7    1         0.8562524499E-04      0.2086605692E-03

    ------------------------------------------------
       NWT REQUIRED            5 OUTER ITERATIONS 
       AND A TOTAL OF          9 INNER ITERATIONS.
    ------------------------------------------------

 NO OUTPUT CONTROL FOR STRESS PERIOD   22   TIME STEP   11
 
 SOLVING FOR HEAD 
                                                   Max.-Head-Change                         Max.-Flux-Residual
  Residual-Control   Outer-Iter.   Inner-Iter.     Column Row Layer    Maximum-Head-Change  Column Row Layer    Maximum-Flux-Residual          L2-NORM 
          0                 1           2             4    7     1       0.9305067944E-01       4    7    1         0.4873035534E+01      0.1214246621E+02
          0                 2           2             4    7     1      -0.4388668160E-01       4    7    1        -0.2357291787E+01      0.5299533892E+01
          0                 3           2             5    8     1      -0.3898616898E-02       5    8    1        -0.2259710551E+00      0.4310870748E+00
          0                 4           2             5    8     1      -0.1042702474E-02       5    8    1        -0.5895375312E-01      0.6085628502E-01
          0                 5           1             5    8     1      -0.2788679412E-03       5    8    1        -0.1582094824E-01      0.1582178304E-01
          0                 6           1             5    8     1      -0.7458055516E-04       5    8    1        -0.4230499143E-02      0.4230552765E-02

    ------------------------------------------------
       NWT REQUIRED            6 OUTER ITERATIONS 
       AND A TOTAL OF         10 INNER ITERATIONS.
    ------------------------------------------------

 NO OUTPUT CONTROL FOR STRESS PERIOD   22   TIME STEP   12
 
 SOLVING FOR HEAD 
                                                   Max.-Head-Change                         Max.-Flux-Residual
  Residual-Control   Outer-Iter.   Inner-Iter.     Column Row Layer    Maximum-Head-Change  Column Row Layer    Maximum-Flux-Residual          L2-NORM 
          0                 1           2             5    8     1       0.1206747703E+00       5    8    1         0.6543125157E+01      0.1291871543E+02
          0                 2           2             4    7     1      -0.4383353209E-01       4    7    1        -0.2354367439E+01      0.5357699321E+01
          0                 3           2             4    7     1       0.2984629338E-02       4    7    1         0.1647907357E+00      0.3749901384E+00
          0                 4           2             4    7     1      -0.1187612210E-03       4    7    1        -0.6739953966E-02      0.1533620644E-01
          0                 5           1             4    7     1       0.1464376446E-05       4    7    1         0.8541599300E-04      0.1943232142E-03

    ------------------------------------------------
       NWT REQUIRED            5 OUTER ITERATIONS 
       AND A TOTAL OF          9 INNER ITERATIONS.
    ------------------------------------------------

 NO OUTPUT CONTROL FOR STRESS PERIOD   22   TIME STEP   13
 
 SOLVING FOR HEAD 
                                                   Max.-Head-Change                         Max.-Flux-Residual
  Residual-Control   Outer-Iter.   Inner-Iter.     Column Row Layer    Maximum-Head-Change  Column Row Layer    Maximum-Flux-Residual          L2-NORM 
          0                 1           2             5    8     1       0.1179693773E+00       5    8    1         0.6391442367E+01      0.1273086882E+02
          0                 2           2             5    8     1      -0.4543169006E-01       5    8    1        -0.2508805572E+01      0.5792438052E+01
          0                 3           2             5    8     1       0.3091242198E-02       5    8    1         0.1754717175E+00      0.4053786272E+00
          0                 4           2             5    8     1      -0.1228564483E-03       5    8    1        -0.7167993229E-02      0.1657618915E-01
          0                 5           1             5    8     1       0.1509187533E-05       5    8    1         0.9049025402E-04      0.2099210802E-03

    ------------------------------------------------
       NWT REQUIRED            5 OUTER ITERATIONS 
       AND A TOTAL OF          9 INNER ITERATIONS.
    ------------------------------------------------

 NO OUTPUT CONTROL FOR STRESS PERIOD   22   TIME STEP   14
 
 SOLVING FOR HEAD 
                                                   Max.-Head-Change                         Max.-Flux-Residual
  Residual-Control   Outer-Iter.   Inner-Iter.     Column Row Layer    Maximum-Head-Change  Column Row Layer    Maximum-Flux-Residual          L2-NORM 
          0                 1           2             5    8     1       0.1142640146E+00       5    8    1         0.6185941876E+01      0.1250900319E+02
          0                 2           2             5    8     1      -0.4507138512E-01       5    8    1        -0.2488264854E+01      0.5772985978E+01
          0                 3           2             5    8     1       0.3066725027E-02       5    8    1         0.1740349371E+00      0.4040176912E+00
          0                 4           2             5    8     1      -0.1218820516E-03       5    8    1        -0.7109298543E-02      0.1652057527E-01
          0                 5           1             5    8     1       0.1497218076E-05       5    8    1         0.8974921411E-04      0.2092174130E-03

    ------------------------------------------------
       NWT REQUIRED            5 OUTER ITERATIONS 
       AND A TOTAL OF          9 INNER ITERATIONS.
    ------------------------------------------------

 NO OUTPUT CONTROL FOR STRESS PERIOD   22   TIME STEP   15
 
 SOLVING FOR HEAD 
                                                   Max.-Head-Change                         Max.-Flux-Residual
  Residual-Control   Outer-Iter.   Inner-Iter.     Column Row Layer    Maximum-Head-Change  Column Row Layer    Maximum-Flux-Residual          L2-NORM 
          0                 1           2             5    8     1       0.1107897266E+00       5    8    1         0.5993398166E+01      0.1229814589E+02
          0                 2           2             5    8     1      -0.4473355160E-01       5    8    1        -0.2469019294E+01      0.5754332781E+01
          0                 3           2             5    8     1       0.3043736922E-02       5    8    1         0.1726887499E+00      0.4027126222E+00
          0                 4           2             5    8     1      -0.1209684244E-03       5    8    1        -0.7054304770E-02      0.1646724533E-01
          0                 5           1             5    8     1       0.1485994749E-05       5    8    1         0.8905485083E-04      0.2085428390E-03

    ------------------------------------------------
       NWT REQUIRED            5 OUTER ITERATIONS 
       AND A TOTAL OF          9 INNER ITERATIONS.
    ------------------------------------------------

 NO OUTPUT CONTROL FOR STRESS PERIOD   22   TIME STEP   16
 
 SOLVING FOR HEAD 
                                                   Max.-Head-Change                         Max.-Flux-Residual
  Residual-Control   Outer-Iter.   Inner-Iter.     Column Row Layer    Maximum-Head-Change  Column Row Layer    Maximum-Flux-Residual          L2-NORM 
          0                 1           2             5    8     1       0.1075296336E+00       5    8    1         0.5812858355E+01      0.1209741959E+02
          0                 2           2             5    8     1      -0.4441654787E-01       5    8    1        -0.2450973636E+01      0.5736428240E+01
          0                 3           2             5    8     1       0.3022166177E-02       5    8    1         0.1714264930E+00      0.4014599200E+00
          0                 4           2             5    8     1      -0.1201111285E-03       5    8    1        -0.7002739722E-02      0.1641605414E-01
          0                 5           1             5    8     1       0.1475463674E-05       5    8    1         0.8840380769E-04      0.2078992420E-03

    ------------------------------------------------
       NWT REQUIRED            5 OUTER ITERATIONS 
       AND A TOTAL OF          9 INNER ITERATIONS.
    ------------------------------------------------

 NO OUTPUT CONTROL FOR STRESS PERIOD   22   TIME STEP   17
 
 SOLVING FOR HEAD 
                                                   Max.-Head-Change                         Max.-Flux-Residual
  Residual-Control   Outer-Iter.   Inner-Iter.     Column Row Layer    Maximum-Head-Change  Column Row Layer    Maximum-Flux-Residual          L2-NORM 
          0                 1           2             5    8     1       0.1044683753E+00       5    8    1         0.5643455095E+01      0.1190604457E+02
          0                 2           2             5    8     1      -0.4411888007E-01       5    8    1        -0.2434041174E+01      0.5719226347E+01
          0                 3           2             5    8     1       0.3001911146E-02       5    8    1         0.1702421016E+00      0.4002563530E+00
          0                 4           2             5    8     1      -0.1193061240E-03       5    8    1        -0.6954355657E-02      0.1636686550E-01
          0                 5           1             5    8     1       0.1465575005E-05       5    8    1         0.8779293967E-04      0.2072746114E-03

    ------------------------------------------------
       NWT REQUIRED            5 OUTER ITERATIONS 
       AND A TOTAL OF          9 INNER ITERATIONS.
    ------------------------------------------------

 NO OUTPUT CONTROL FOR STRESS PERIOD   22   TIME STEP   18
 
 SOLVING FOR HEAD 
                                                   Max.-Head-Change                         Max.-Flux-Residual
  Residual-Control   Outer-Iter.   Inner-Iter.     Column Row Layer    Maximum-Head-Change  Column Row Layer    Maximum-Flux-Residual          L2-NORM 
          0                 1           2             5    8     1       0.1015915568E+00       5    8    1         0.5484376418E+01      0.1172331821E+02
          0                 2           2             5    8     1      -0.4383914825E-01       5    8    1        -0.2418140739E+01      0.5702685397E+01
          0                 3           2             5    8     1       0.2982876569E-02       5    8    1         0.1691283186E+00      0.3990978392E+00
          0                 4           2             5    8     1      -0.1185496244E-03       5    8    1        -0.6908703825E-02      0.1631941450E-01
          0                 5           1             5    8     1       0.1456282142E-05       5    8    1         0.8720627193E-04      0.2066703242E-03

    ------------------------------------------------
       NWT REQUIRED            5 OUTER ITERATIONS 
       AND A TOTAL OF          9 INNER ITERATIONS.
    ------------------------------------------------

 NO OUTPUT CONTROL FOR STRESS PERIOD   22   TIME STEP   19
 
 SOLVING FOR HEAD 
                                                   Max.-Head-Change                         Max.-Flux-Residual
  Residual-Control   Outer-Iter.   Inner-Iter.     Column Row Layer    Maximum-Head-Change  Column Row Layer    Maximum-Flux-Residual          L2-NORM 
          0                 1           2             5    8     1       0.9888607854E-01       5    8    1         0.5334883807E+01      0.1154860811E+02
          0                 2           2             4    7     1      -0.4344157958E-01       4    7    1        -0.2333328251E+01      0.5440970491E+01
          0                 3           2             5    8     1      -0.8544767803E-02       5    8    1        -0.4896365767E+00      0.6081803079E+00
          0                 4           2             5    8     1      -0.2481927759E-03       5    8    1        -0.1387083793E-01      0.2038904428E-01
          0                 5           1             5    8     1       0.1689369964E-04       5    8    1         0.9830555259E-03      0.9992113993E-03

    ------------------------------------------------
       NWT REQUIRED            5 OUTER ITERATIONS 
       AND A TOTAL OF          9 INNER ITERATIONS.
    ------------------------------------------------

 NO OUTPUT CONTROL FOR STRESS PERIOD   22   TIME STEP   20
 
 SOLVING FOR HEAD 
                                                   Max.-Head-Change                         Max.-Flux-Residual
  Residual-Control   Outer-Iter.   Inner-Iter.     Column Row Layer    Maximum-Head-Change  Column Row Layer    Maximum-Flux-Residual          L2-NORM 
          0                 1           2             5    8     1       0.9633985251E-01       5    8    1         0.5194295547E+01      0.1138133649E+02
          0                 2           2             4    7     1      -0.4337485461E-01       4    7    1        -0.2330204757E+01      0.5186469332E+01
          0                 3           2             5    8     1      -0.3460954050E-02       5    8    1        -0.2012039266E+00      0.4124306953E+00
          0                 4           2             5    8     1      -0.9255264983E-03       5    8    1        -0.5230742831E-01      0.5436105184E-01
          0                 5           1             5    8     1      -0.2474971812E-03       5    8    1        -0.1404237931E-01      0.1404327384E-01
          0                 6           1             5    8     1      -0.6618209308E-04       5    8    1        -0.3754301556E-02      0.3754350570E-02

    ------------------------------------------------
       NWT REQUIRED            6 OUTER ITERATIONS 
       AND A TOTAL OF         10 INNER ITERATIONS.
    ------------------------------------------------

 NO OUTPUT CONTROL FOR STRESS PERIOD   22   TIME STEP   21
 
 SOLVING FOR HEAD 
                                                   Max.-Head-Change                         Max.-Flux-Residual
  Residual-Control   Outer-Iter.   Inner-Iter.     Column Row Layer    Maximum-Head-Change  Column Row Layer    Maximum-Flux-Residual          L2-NORM 
          0                 1           2             4    8     1       0.1265625766E+00       4    8    1         0.6746318037E+01      0.1232910984E+02
          0                 2           2             4    8     1      -0.4648440183E-01       4    8    1        -0.2544273137E+01      0.5418093052E+01
          0                 3           2             4    8     1       0.3162800848E-02       4    8    1         0.1779504629E+00      0.3791505016E+00
          0                 4           2             4    8     1      -0.1256967087E-03       4    8    1        -0.7269174589E-02      0.1550182255E-01
          0                 5           1             4    8     1       0.1543929158E-05       4    8    1         0.9176443882E-04      0.1962412435E-03

    ------------------------------------------------
       NWT REQUIRED            5 OUTER ITERATIONS 
       AND A TOTAL OF          9 INNER ITERATIONS.
    ------------------------------------------------

 NO OUTPUT CONTROL FOR STRESS PERIOD   22   TIME STEP   22
 
 SOLVING FOR HEAD 
                                                   Max.-Head-Change                         Max.-Flux-Residual
  Residual-Control   Outer-Iter.   Inner-Iter.     Column Row Layer    Maximum-Head-Change  Column Row Layer    Maximum-Flux-Residual          L2-NORM 
          0                 1           2             5    7     1       0.1260838787E+00       5    7    1         0.6764189321E+01      0.1319588371E+02
          0                 2           2             5    7     1      -0.4674780636E-01       5    7    1        -0.2546071491E+01      0.5839893067E+01
          0                 3           2             5    7     1       0.3180753453E-02       5    7    1         0.1780757528E+00      0.4085865217E+00
          0                 4           2             5    7     1      -0.1264119380E-03       5    7    1        -0.7274247046E-02      0.1669968392E-01
          0                 5           1             5    7     1       0.1552786283E-05       5    7    1         0.9182668146E-04      0.2112220816E-03

    ------------------------------------------------
       NWT REQUIRED            5 OUTER ITERATIONS 
       AND A TOTAL OF          9 INNER ITERATIONS.
    ------------------------------------------------

 NO OUTPUT CONTROL FOR STRESS PERIOD   22   TIME STEP   23
 
 SOLVING FOR HEAD 
                                                   Max.-Head-Change                         Max.-Flux-Residual
  Residual-Control   Outer-Iter.   Inner-Iter.     Column Row Layer    Maximum-Head-Change  Column Row Layer    Maximum-Flux-Residual          L2-NORM 
          0                 1           2             5    7     1       0.1228893145E+00       5    7    1         0.6587300246E+01      0.1299639177E+02
          0                 2           2             5    7     1      -0.4643707158E-01       5    7    1        -0.2528389814E+01      0.5822932333E+01
          0                 3           2             5    7     1       0.3159609909E-02       5    7    1         0.1768389954E+00      0.4073991517E+00
          0                 4           2             5    7     1      -0.1255716216E-03       5    7    1        -0.7223723521E-02      0.1665113190E-01
          0                 5           1             5    7     1       0.1542463780E-05       5    7    1         0.9118877961E-04      0.2106227792E-03

    ------------------------------------------------
       NWT REQUIRED            5 OUTER ITERATIONS 
       AND A TOTAL OF          9 INNER ITERATIONS.
    ------------------------------------------------

 NO OUTPUT CONTROL FOR STRESS PERIOD   22   TIME STEP   24
 
 SOLVING FOR HEAD 
                                                   Max.-Head-Change                         Max.-Flux-Residual
  Residual-Control   Outer-Iter.   Inner-Iter.     Column Row Layer    Maximum-Head-Change  Column Row Layer    Maximum-Flux-Residual          L2-NORM 
          0                 1           2             5    7     1       0.1204296178E+00       5    7    1         0.6413912501E+01      0.1368172795E+02
          0                 2           2             5    7     1      -0.4619768109E-01       5    7    1        -0.2511051421E+01      0.5902627860E+01
          0                 3           2             5    7     1       0.3143291503E-02       5    7    1         0.1756263763E+00      0.4129268583E+00
          0                 4           2             5    7     1      -0.1249207928E-03       5    7    1        -0.7174172081E-02      0.1687378641E-01
          0                 5           1             5    7     1       0.1534382134E-05       5    7    1         0.9056268391E-04      0.2133235319E-03

    ------------------------------------------------
       NWT REQUIRED            5 OUTER ITERATIONS 
       AND A TOTAL OF          9 INNER ITERATIONS.
    ------------------------------------------------

 NO OUTPUT CONTROL FOR STRESS PERIOD   22   TIME STEP   25
 
 SOLVING FOR HEAD 
                                                   Max.-Head-Change                         Max.-Flux-Residual
  Residual-Control   Outer-Iter.   Inner-Iter.     Column Row Layer    Maximum-Head-Change  Column Row Layer    Maximum-Flux-Residual          L2-NORM 
          0                 1           2             5    7     1       0.1180802229E+00       5    7    1         0.6286083611E+01      0.1347034782E+02
          0                 2           2             5    7     1      -0.4596918210E-01       5    7    1        -0.2498274353E+01      0.5883920894E+01
          0                 3           2             5    7     1       0.3127743458E-02       5    7    1         0.1747305650E+00      0.4116157143E+00
          0                 4           2             5    7     1      -0.1243028775E-03       5    7    1        -0.7137374932E-02      0.1682004729E-01
          0                 5           1             5    7     1       0.1526792233E-05       5    7    1         0.9008439383E-04      0.2126582258E-03

    ------------------------------------------------
       NWT REQUIRED            5 OUTER ITERATIONS 
       AND A TOTAL OF          9 INNER ITERATIONS.
    ------------------------------------------------

 NO OUTPUT CONTROL FOR STRESS PERIOD   22   TIME STEP   26
 
 SOLVING FOR HEAD 
                                                   Max.-Head-Change                         Max.-Flux-Residual
  Residual-Control   Outer-Iter.   Inner-Iter.     Column Row Layer    Maximum-Head-Change  Column Row Layer    Maximum-Flux-Residual          L2-NORM 
          0                 1           2             5    7     1       0.1158338215E+00       5    7    1         0.6163998760E+01      0.1326676854E+02
          0                 2           2             5    7     1      -0.4574304577E-01       5    7    1        -0.2486071470E+01      0.5504982921E+01
          0                 3           2             4    8     1      -0.7334107165E-02       4    8    1        -0.4136030256E+00      0.5561778040E+00
          0                 4           2             4    8     1      -0.2003550829E-02       4    8    1        -0.1115743743E+00      0.1126239819E+00
          0                 5           2             4    8     1      -0.5473221918E-03       4    8    1        -0.3053041654E-01      0.3053081629E-01
          0                 6           2             4    8     1      -0.1495115765E-03       4    8    1        -0.8339257203E-02      0.8339332801E-02
          0                 7           1             4    8     1      -0.4084094397E-04       4    8    1        -0.2277957831E-02      0.2277976723E-02

    ------------------------------------------------
       NWT REQUIRED            7 OUTER ITERATIONS 
       AND A TOTAL OF         13 INNER ITERATIONS.
    ------------------------------------------------

 NO OUTPUT CONTROL FOR STRESS PERIOD   22   TIME STEP   27
 
 SOLVING FOR HEAD 
                                                   Max.-Head-Change                         Max.-Flux-Residual
  Residual-Control   Outer-Iter.   Inner-Iter.     Column Row Layer    Maximum-Head-Change  Column Row Layer    Maximum-Flux-Residual          L2-NORM 
          0                 1           2             5    7     1       0.1138565886E+00       5    7    1         0.6047386762E+01      0.1329151296E+02
          0                 2           2             5    6     1      -0.4411246136E-01       5    6    1        -0.2430296846E+01      0.4761303559E+01
          0                 3           2             5    6     1       0.2973853589E-02       5    6    1         0.1699789242E+00      0.2994336718E+00
          0                 4           2             4    7     1      -0.2834524167E-03       4    7    1        -0.1562961573E-01      0.2107666767E-01
          0                 5           1             4    7     1      -0.7773559699E-04       4    7    1        -0.4324165695E-02      0.4836119305E-02

    ------------------------------------------------
       NWT REQUIRED            5 OUTER ITERATIONS 
       AND A TOTAL OF          9 INNER ITERATIONS.
    ------------------------------------------------

 NO OUTPUT CONTROL FOR STRESS PERIOD   22   TIME STEP   28
 
 SOLVING FOR HEAD 
                                                   Max.-Head-Change                         Max.-Flux-Residual
  Residual-Control   Outer-Iter.   Inner-Iter.     Column Row Layer    Maximum-Head-Change  Column Row Layer    Maximum-Flux-Residual          L2-NORM 
          0                 1           2             4    7     1       0.1294480892E+00       4    7    1         0.6827238322E+01      0.1381626504E+02
          0                 2           2             4    8     1      -0.4379999647E-01       4    8    1        -0.2380912774E+01      0.4955124310E+01
          0                 3           2             5    6     1      -0.7347921835E-02       5    6    1        -0.4146434822E+00      0.6063711872E+00
          0                 4           2             5    6     1      -0.1993529302E-02       5    6    1        -0.1117058263E+00      0.1388917689E+00
          0                 5           2             5    6     1      -0.5409294248E-03       5    6    1        -0.3033418497E-01      0.3771311856E-01
          0                 6           2             5    6     1      -0.1467968532E-03       5    6    1        -0.8230609000E-02      0.1027288007E-01
          0                 7           1             5    6     1      -0.3984272619E-04       5    6    1        -0.2233612991E-02      0.2798533702E-02

    ------------------------------------------------
       NWT REQUIRED            7 OUTER ITERATIONS 
       AND A TOTAL OF         13 INNER ITERATIONS.
    ------------------------------------------------

 NO OUTPUT CONTROL FOR STRESS PERIOD   22   TIME STEP   29
 
 SOLVING FOR HEAD 
                                                   Max.-Head-Change                         Max.-Flux-Residual
  Residual-Control   Outer-Iter.   Inner-Iter.     Column Row Layer    Maximum-Head-Change  Column Row Layer    Maximum-Flux-Residual          L2-NORM 
          0                 1           2             4    7     1       0.1309774266E+00       4    7    1         0.6912762304E+01      0.1371245091E+02
          0                 2           2             4    7     1      -0.4716031166E-01       4    7    1        -0.2560909619E+01      0.4936670498E+01
          0                 3           2             4    7     1       0.3207289812E-02       4    7    1         0.1791126239E+00      0.3751088959E+00
          0                 4           2             5    6     1      -0.6929665811E-03       5    6    1        -0.3915504089E-01      0.4161017629E-01
          0                 5           2             5    6     1      -0.1853619122E-03       5    6    1        -0.1051450409E-01      0.1051575555E-01
          0                 6           1             5    6     1      -0.4958124865E-04       5    6    1        -0.2811926327E-02      0.2811965530E-02

    ------------------------------------------------
       NWT REQUIRED            6 OUTER ITERATIONS 
       AND A TOTAL OF         11 INNER ITERATIONS.
    ------------------------------------------------

 NO OUTPUT CONTROL FOR STRESS PERIOD   22   TIME STEP   30



 STREAM LISTING     PERIOD     22   STEP       30

 LAYER ROW COL. STREAM  RCH.  FLOW INTO     FLOW TO   FLOW OUT OF   OVRLND.     DIRECT     STREAM       STREAM     STREAM     STREAM   STREAMBED  STREAMBED
                SEG.NO.  NO.  STRM. RCH.    AQUIFER    STRM. RCH.    RUNOFF     PRECIP       ET          HEAD       DEPTH      WIDTH   CONDCTNC.   GRADIENT

   1    1    1     1     1    2.4431E+01  2.4251E-01   2.4189E+01  0.000E+00  0.000E+00  0.000E+00  1.09422E+03  1.170E+00  1.292E+01  5.816E-02  1.390E+00
   1    2    2     1     2    2.4189E+01  3.7499E-01   2.3814E+01  0.000E+00  0.000E+00  0.000E+00  1.08922E+03  1.165E+00  1.286E+01  9.003E-02  1.388E+00
   1    3    3     1     3    2.3814E+01  3.1923E-01   2.3495E+01  0.000E+00  0.000E+00  0.000E+00  1.08358E+03  1.160E+00  1.279E+01  7.674E-02  1.387E+00
   1    3    4     1     4    2.3495E+01  2.9350E-01   2.3201E+01  0.000E+00  0.000E+00  0.000E+00  1.07856E+03  1.155E+00  1.273E+01  7.064E-02  1.385E+00
   1    4    5     2     1    2.1201E+01  3.1894E-01   2.0882E+01  0.000E+00  0.000E+00  0.000E+00  1.07302E+03  1.089E+00  1.200E+01  7.800E-02  1.363E+00
   1    5    6     2     2    2.0882E+01  2.4481E-01   2.0637E+01  0.000E+00  0.000E+00  0.000E+00  1.06759E+03  1.080E+00  1.200E+01  6.000E-02  1.360E+00
   1    6    6     2     3    2.0637E+01  2.4435E-01   2.0393E+01  0.000E+00  0.000E+00  0.000E+00  1.06286E+03  1.072E+00  1.200E+01  6.000E-02  1.357E+00
   1    7    6     2     4    2.0393E+01  2.4389E-01   2.0149E+01  0.000E+00  0.000E+00  0.000E+00  1.05814E+03  1.065E+00  1.200E+01  6.000E-02  1.355E+00
   1    8    6     2     5    2.0149E+01  2.4343E-01   1.9906E+01  0.000E+00  0.000E+00  0.000E+00  1.05342E+03  1.057E+00  1.200E+01  6.000E-02  1.352E+00
   1    3    5     3     1    2.0000E+00  2.8252E-01   1.7175E+00  0.000E+00  0.000E+00  0.000E+00  1.07555E+03  1.909E+00  9.636E+00  7.227E-02  1.955E+00
   1    3    6     3     2    1.7175E+00  2.4905E-01   1.4684E+00  0.000E+00  0.000E+00  0.000E+00  1.07264E+03  1.727E+00  8.909E+00  6.682E-02  1.864E+00
   1    3    7     3     3    1.4684E+00  1.9718E-01   1.2712E+00  0.000E+00  0.000E+00  0.000E+00  1.06987E+03  1.555E+00  8.218E+00  5.547E-02  1.777E+00
   1    4    8     3     4    1.2712E+00  2.2567E-01   1.0456E+00  0.000E+00  0.000E+00  0.000E+00  1.06682E+03  1.364E+00  7.455E+00  6.709E-02  1.682E+00
   1    5    8     3     5    1.0456E+00  1.5790E-01   8.8768E-01  0.000E+00  0.000E+00  0.000E+00  1.06362E+03  1.164E+00  6.655E+00  4.991E-02  1.582E+00
   1    6    8     3     6    8.8768E-01  5.5980E-02   8.3170E-01  0.000E+00  0.000E+00  0.000E+00  1.06158E+03  1.036E+00  6.145E+00  1.844E-02  1.518E+00
   1    5   10     4     1    1.0000E+01  9.0919E-02   9.9091E+00  0.000E+00  0.000E+00  0.000E+00  1.07836E+03  6.368E-01  1.000E+01  2.500E-02  1.212E+00
   1    5    9     4     2    9.9091E+00  1.8158E-01   9.7275E+00  0.000E+00  0.000E+00  0.000E+00  1.07154E+03  6.315E-01  1.000E+01  5.000E-02  1.211E+00
   1    6    8     4     3    9.7275E+00  1.2689E-01   9.6006E+00  0.000E+00  0.000E+00  0.000E+00  1.06381E+03  6.256E-01  1.000E+01  3.500E-02  1.209E+00
   1    6    8     5     1    1.0432E+01  2.2686E-01   1.0205E+01  0.000E+00  0.000E+00  0.000E+00  1.05868E+03  6.790E-01  1.542E+01  6.166E-02  1.226E+00
   1    7    7     5     2    1.0205E+01  2.7894E-01   9.9265E+00  0.000E+00  0.000E+00  0.000E+00  1.05417E+03  6.732E-01  1.519E+01  7.594E-02  1.224E+00
   1    8    7     5     3    9.9265E+00  1.9221E-01   9.7343E+00  0.000E+00  0.000E+00  0.000E+00  1.04992E+03  6.676E-01  1.497E+01  5.241E-02  1.223E+00
   1    8    6     5     4    9.7343E+00  1.3577E-01   9.5985E+00  0.000E+00  0.000E+00  0.000E+00  1.04691E+03  6.637E-01  1.482E+01  3.706E-02  1.221E+00
   1    9    6     6     1    2.9504E+01  2.6070E-01   2.9244E+01  0.000E+00  0.000E+00  0.000E+00  1.04407E+03  1.345E+00  1.200E+01  6.000E-02  1.448E+00
   1   10    7     6     2    2.9244E+01  2.6027E-01   2.8983E+01  0.000E+00  0.000E+00  0.000E+00  1.03952E+03  1.338E+00  1.200E+01  6.000E-02  1.446E+00
   1   11    7     6     3    2.8983E+01  2.5984E-01   2.8723E+01  0.000E+00  0.000E+00  0.000E+00  1.03497E+03  1.331E+00  1.200E+01  6.000E-02  1.444E+00
   1   12    7     6     4    2.8723E+01  2.5941E-01   2.8464E+01  0.000E+00  0.000E+00  0.000E+00  1.03041E+03  1.324E+00  1.200E+01  6.000E-02  1.441E+00
   1   13    7     6     5    2.8464E+01  4.4397E-03   2.8460E+01  0.000E+00  0.000E+00  0.000E+00  1.02723E+03  1.320E+00  1.200E+01  2.400E-02  6.166E-02
   1   14    9     7     1    1.5000E+02  1.3344E+00   1.4867E+02  0.000E+00  0.000E+00  0.000E+00  1.03987E+03  2.288E+00  5.529E+01  5.593E-01  7.953E-01
   1   13    8     7     2    1.4867E+02  1.8387E+00   1.4683E+02  0.000E+00  0.000E+00  0.000E+00  1.03478E+03  2.279E+00  5.526E+01  6.148E-01  9.969E-01
   1   13    7     7     3    1.4683E+02  1.4776E+00   1.4535E+02  0.000E+00  0.000E+00  0.000E+00  1.02969E+03  2.270E+00  5.522E+01  5.585E-01  8.819E-01
   1   13    6     8     1    1.7381E+02  9.4309E-01   1.7287E+02  0.000E+00  0.000E+00  0.000E+00  1.02485E+03  2.974E+00  4.312E+01  4.394E-01  7.154E-01
   1   13    5     8     2    1.7287E+02  1.9285E-01   1.7267E+02  0.000E+00  0.000E+00  0.000E+00  1.01860E+03  2.970E+00  4.307E+01  4.389E-01  1.465E-01
   1   13    4     8     3    1.7267E+02 -2.3877E+00   1.7506E+02  0.000E+00  0.000E+00  0.000E+00  1.01235E+03  2.977E+00  4.317E+01  4.399E+00 -1.809E-01
   1   13    3     8     4    1.7506E+02 -3.6512E+00   1.7871E+02  0.000E+00  0.000E+00  0.000E+00  1.00612E+03  2.996E+00  4.345E+01  4.428E+00 -2.749E-01
   1   13    2     8     5    1.7871E+02 -2.6113E+00   1.8132E+02  0.000E+00  0.000E+00  0.000E+00  9.99891E+02  3.016E+00  4.374E+01  4.457E+00 -1.953E-01
   1   13    1     8     6    1.8132E+02 -2.0291E+00   1.8335E+02  0.000E+00  0.000E+00  0.000E+00  9.94906E+02  3.031E+00  4.395E+01  2.687E+00 -2.517E-01





UNSATURATED ZONE PACKAGE VOLUMETRIC BUDGET FOR  TIME STEP    30 STRESS PERIOD   22
  ------------------------------------------------------------------------------



     CUMULATIVE VOLUMES      L**3       RATES FOR THIS TIME STEP      L**3/T
     ------------------                 ------------------------

           IN:                                      IN:
           ---                                      ---
        INFILTRATION =   916976604.7700          INFILTRATION =          12.0675

          OUT:                                     OUT:
          ----                                     ----
              UZF ET =   841038158.3487                UZF ET =          12.0675
        UZF RECHARGE =    48210316.9288          UZF RECHARGE =          15.1355

            IN - OUT =    27728129.4924              IN - OUT =         -15.1355

          STORAGE:                                 STORAGE:
          --------                                 --------
      STORAGE CHANGE =    27728130.5901        STORAGE CHANGE =         -15.1355

 PERCENT DISCREPANCY IS DIFFERENCE BETWEEN IN-OUT MINUS CHANGE IN STORAGE
 DIVIDED BY THE AVERAGE OF IN AND OUT TIMES 100

 PERCENT DISCREPANCY =           0.00     PERCENT DISCREPANCY =           0.00






1
  VOLUMETRIC BUDGET FOR AGRICULTURAL FIELDS AT  END OF TIME STEP   30, STRESS PERIOD  22
  ------------------------------------------------------------------------------

     CUMULATIVE VOLUMES      L**3       RATES FOR THIS TIME STEP      L**3/T
     ------------------                 ------------------------

           IN:                                      IN:
           ---                                      ---
               AG WELLS  =   870094720.0000                 AG WELLS  =          11.2200
      DIVERSION SEGMENTS =           0.0000        DIVERSION SEGMENTS =           0.0000
       IRRIGATION PONDS  =           0.0000         IRRIGATION PONDS  =           0.0000
           GW IRRIGATION =           0.0000             GW IRRIGATION =           0.0000
           SW IRRIGATION =           0.0000             SW IRRIGATION =           0.0000
        SYSTEM LOSSES GW =           0.0000          SYSTEM LOSSES GW =           0.0000
        SYSTEM LOSSES SW =           0.0000          SYSTEM LOSSES SW =           0.0000

                TOTAL IN =   870094720.0000                  TOTAL IN =          11.2200

          OUT:                                     OUT:
          ----                                     ----
               AG WELLS  =           0.0000                 AG WELLS  =           0.0000
      DIVERSION SEGMENTS =           0.0000        DIVERSION SEGMENTS =           0.0000
       IRRIGATION PONDS  =           0.0000         IRRIGATION PONDS  =           0.0000
           GW IRRIGATION =   870094720.0000             GW IRRIGATION =          11.2200
           SW IRRIGATION =           0.0000             SW IRRIGATION =           0.0000
        SYSTEM LOSSES GW =           0.0000          SYSTEM LOSSES GW =           0.0000
        SYSTEM LOSSES SW =           0.0000          SYSTEM LOSSES SW =           0.0000

               TOTAL OUT =   870094720.0000                 TOTAL OUT =          11.2200

                IN - OUT =           0.0000                  IN - OUT =           0.0000

     PERCENT DISCREPANCY =           0.00         PERCENT DISCREPANCY =           0.00



1
  VOLUMETRIC BUDGET FOR ENTIRE MODEL AT END OF TIME STEP   30, STRESS PERIOD  22
  ------------------------------------------------------------------------------

     CUMULATIVE VOLUMES      L**3       RATES FOR THIS TIME STEP      L**3/T
     ------------------                 ------------------------

           IN:                                      IN:
           ---                                      ---
             STORAGE     =  1053445888.0000               STORAGE     =          19.0168
       CONSTANT HEAD     =           0.0000         CONSTANT HEAD     =           0.0000
     HEAD DEP BOUNDS     =    15789347.0000       HEAD DEP BOUNDS     =           0.2857
      STREAM LEAKAGE     =   692769920.0000        STREAM LEAKAGE     =          11.7584
        UZF RECHARGE     =    48210344.0000          UZF RECHARGE     =          15.1355
               GW ET     =           0.0000                 GW ET     =           0.0000
     SURFACE LEAKAGE     =           0.0000       SURFACE LEAKAGE     =           0.0000
           AG WELLS      =           0.0000             AG WELLS      =           0.0000

                TOTAL IN =  1810215552.0000                  TOTAL IN =          46.1964

          OUT:                                     OUT:
          ----                                     ----
             STORAGE     =   333695648.0000               STORAGE     =          24.0067
       CONSTANT HEAD     =           0.0000         CONSTANT HEAD     =           0.0000
     HEAD DEP BOUNDS     =    16296948.0000       HEAD DEP BOUNDS     =           0.2911
      STREAM LEAKAGE     =   572524928.0000        STREAM LEAKAGE     =          10.6793
        UZF RECHARGE     =           0.0000          UZF RECHARGE     =           0.0000
               GW ET     =    17607784.0000                 GW ET     =           0.0000
     SURFACE LEAKAGE     =           0.0000       SURFACE LEAKAGE     =           0.0000
           AG WELLS      =   870094720.0000             AG WELLS      =          11.2200

               TOTAL OUT =  1810220032.0000                 TOTAL OUT =          46.1971

                IN - OUT =       -4480.0000                  IN - OUT =      -7.5912E-04

     PERCENT DISCREPANCY =          -0.00         PERCENT DISCREPANCY =          -0.00






         TIME SUMMARY AT END OF TIME STEP   30 IN STRESS PERIOD   22
                    SECONDS     MINUTES      HOURS       DAYS        YEARS
                    -----------------------------------------------------------
   TIME STEP LENGTH  87667.      1461.1      24.352      1.0147     2.77799E-03
 STRESS PERIOD TIME 2.63000E+06  43833.      730.56      30.440     8.33397E-02
         TOTAL TIME 5.53166E+07 9.21944E+05  15366.      640.24      1.7529    
1
1
                            STRESS PERIOD NO.   23, LENGTH =   2630000.    
                            -----------------------------------------------

                              NUMBER OF TIME STEPS =    30

                               MULTIPLIER FOR DELT =     1.000

                            INITIAL TIME STEP SIZE =   87666.66    

 REUSING NON-PARAMETER GHB CELLS FROM LAST STRESS PERIOD

      2 GHB CELLS

 REUSING STREAM SEGMENT DATA FROM LAST STRESS PERIOD



            AREAL INFILTRATION RATE
 READING ON UNIT   19 WITH FORMAT: (FREE)              

            1           2           3           4           5           6           7           8           9          10
 ........................................................................................................................
   1   1.0000E-10  2.0000E-10   0.000       0.000       0.000       0.000       0.000       0.000       0.000       0.000    
   2   2.0000E-10  1.0000E-10  2.0000E-10   0.000       0.000      8.0000E-10  8.0000E-10  5.0000E-10   0.000       0.000    
   3    0.000      5.0000E-10  1.0000E-10  1.0000E-10  8.0000E-10  8.0000E-10  5.0000E-10  5.0000E-10   0.000       0.000    
   4   8.0000E-10  5.0000E-10  1.0000E-10  1.0000E-10  1.0000E-10  1.0000E-10  1.0000E-10  1.0000E-10  2.0000E-10   0.000    
   5   8.0000E-10  5.0000E-10  1.0000E-10  1.0000E-10  1.0000E-10  1.0000E-10  1.0000E-10  1.0000E-10  1.0000E-10  1.0000E-10
   6   8.0000E-10  5.0000E-10  5.0000E-10  2.0000E-10  2.0000E-10  1.0000E-10  1.0000E-10  1.0000E-10  1.0000E-10  5.0000E-10
   7   8.0000E-10  5.0000E-10  5.0000E-10  2.0000E-10  2.0000E-10  1.0000E-10  1.0000E-10  2.0000E-10  2.0000E-10   0.000    
   8    0.000      5.0000E-10  5.0000E-10  2.0000E-10  2.0000E-10  1.0000E-10  1.0000E-10  2.0000E-10  5.0000E-10   0.000    
   9    0.000      5.0000E-10  5.0000E-10  2.0000E-10  2.0000E-10  1.0000E-10  1.0000E-10  2.0000E-10  5.0000E-10   0.000    
  10    0.000      5.0000E-10  5.0000E-10  2.0000E-10  2.0000E-10  1.0000E-10  1.0000E-10  2.0000E-10  5.0000E-10  8.0000E-10
  11    0.000      1.0000E-10  1.0000E-10  1.0000E-10  1.0000E-10  1.0000E-10  1.0000E-10  2.0000E-10  5.0000E-10   0.000    
  12   1.0000E-10  1.0000E-10  1.0000E-10  1.0000E-10  1.0000E-10  1.0000E-10  1.0000E-10  1.0000E-10  2.0000E-10   0.000    
  13   1.0000E-10  1.0000E-10  2.0000E-10  2.0000E-10  2.0000E-10  2.0000E-10  2.0000E-10  1.0000E-10  1.0000E-10   0.000    
  14    0.000      2.0000E-10  5.0000E-10  5.0000E-10  5.0000E-10  5.0000E-10  5.0000E-10  2.0000E-10  1.0000E-10   0.000    
  15    0.000       0.000      8.0000E-10  8.0000E-10  8.0000E-10  8.0000E-10   0.000       0.000       0.000       0.000    

                  ET RATE =  5.000000E-09

 USING ET EXTINCTION DEPTH FROM PREVIOUS STRESS PERIOD. CURRENT PERIOD IS:      23

 USING EXTINCTION WATER CONTENT FROM PREVIOUS STRESS PERIOD. CURRENT PERIOD IS:      23

 USING AIR ENTRY PRESSURE FROM PREVIOUS STRESS PERIOD. CURRENT PERIOD IS:      23

 USING ROOT PRESSURE HEAD FROM PREVIOUS STRESS PERIOD. CURRENT PERIOD IS:      23

 USING ROOT ACTIVITY FROM PREVIOUS STRESS PERIOD. CURRENT PERIOD IS:      23

 PROCESSING AG STRESS PERIOD DATA

 READING AG STRESS PERIOD DATA

 READING IRRIGATION WELL

 NO IRRPOND OR REUSING IRRPOND DATA FROM LAST STRESS PERIOD

 END PROCESSING AG STRESS PERIOD DATA OPTIONS
 
 SOLVING FOR HEAD 
                                                   Max.-Head-Change                         Max.-Flux-Residual
  Residual-Control   Outer-Iter.   Inner-Iter.     Column Row Layer    Maximum-Head-Change  Column Row Layer    Maximum-Flux-Residual          L2-NORM 
          0                 1           2             4    7     1       0.1295316919E+00       4    7    1         0.6836235759E+01      0.1351043484E+02
          0                 2           2             4    7     1      -0.1258912019E-01       4    7    1        -0.6832750130E+00      0.1248297705E+01
          0                 3           2             4    7     1       0.8566308413E-03       4    7    1         0.4779317672E-01      0.8732469602E-01
          0                 4           1             4    7     1      -0.3404388271E-04       4    7    1        -0.1952302024E-02      0.3567778495E-02

    ------------------------------------------------
       NWT REQUIRED            4 OUTER ITERATIONS 
       AND A TOTAL OF          7 INNER ITERATIONS.
    ------------------------------------------------

 NO OUTPUT CONTROL FOR STRESS PERIOD   23   TIME STEP    1
 
 SOLVING FOR HEAD 
                                                   Max.-Head-Change                         Max.-Flux-Residual
  Residual-Control   Outer-Iter.   Inner-Iter.     Column Row Layer    Maximum-Head-Change  Column Row Layer    Maximum-Flux-Residual          L2-NORM 
          0                 1           2             4    7     1       0.1275388411E+00       4    7    1         0.6730336987E+01      0.1325797626E+02
          0                 2           2             5    8     1       0.1507731153E-01       5    8    1         0.8493056795E+00      0.1510084672E+01
          0                 3           2             5    8     1       0.3722166863E-02       5    8    1         0.2042152159E+00      0.2222436568E+00
          0                 4           1             5    8     1       0.9189085198E-03       5    8    1         0.5076023735E-01      0.5087582466E-01
          0                 5           1             5    8     1       0.2268549549E-03       5    8    1         0.1251776911E-01      0.1251838230E-01
          0                 6           1             5    8     1       0.5600469187E-04       5    8    1         0.3090293310E-02      0.3090457771E-02

    ------------------------------------------------
       NWT REQUIRED            6 OUTER ITERATIONS 
       AND A TOTAL OF          9 INNER ITERATIONS.
    ------------------------------------------------

 NO OUTPUT CONTROL FOR STRESS PERIOD   23   TIME STEP    2
 
 SOLVING FOR HEAD 
                                                   Max.-Head-Change                         Max.-Flux-Residual
  Residual-Control   Outer-Iter.   Inner-Iter.     Column Row Layer    Maximum-Head-Change  Column Row Layer    Maximum-Flux-Residual          L2-NORM 
          0                 1           2             4    7     1       0.1262225219E+00       4    7    1         0.6627221570E+01      0.1391861171E+02
          0                 2           2             4    6     1       0.2064393115E-01       4    6    1         0.1136616776E+01      0.1538789479E+01
          0                 3           2             4    6     1       0.5160155188E-02       4    6    1         0.2818527607E+00      0.2992616055E+00
          0                 4           2             4    6     1       0.1289828991E-02       4    6    1         0.7059248541E-01      0.7264312044E-01
          0                 5           2             4    6     1       0.3224032871E-03       4    6    1         0.1763958845E-01      0.1813684476E-01
          0                 6           1             4    6     1       0.8058693392E-04       4    6    1         0.4409038225E-02      0.4533586004E-02

    ------------------------------------------------
       NWT REQUIRED            6 OUTER ITERATIONS 
       AND A TOTAL OF         11 INNER ITERATIONS.
    ------------------------------------------------

 NO OUTPUT CONTROL FOR STRESS PERIOD   23   TIME STEP    3
 
 SOLVING FOR HEAD 
                                                   Max.-Head-Change                         Max.-Flux-Residual
  Residual-Control   Outer-Iter.   Inner-Iter.     Column Row Layer    Maximum-Head-Change  Column Row Layer    Maximum-Flux-Residual          L2-NORM 
          0                 1           2             4    7     1       0.1251811178E+00       4    7    1         0.6575857028E+01      0.1365253149E+02
          0                 2           2             4    7     1       0.2639475900E-01       4    7    1         0.1453257620E+01      0.1770052527E+01
          0                 3           2             4    7     1      -0.2571699566E-02       4    7    1        -0.1447790558E+00      0.1623815354E+00
          0                 4           1             4    7     1       0.1735199244E-03       4    7    1         0.1009715065E-01      0.1191948717E-01
          0                 5           1             4    8     1      -0.2687042016E-04       4    8    1        -0.1493986343E-02      0.1550628520E-02

    ------------------------------------------------
       NWT REQUIRED            5 OUTER ITERATIONS 
       AND A TOTAL OF          8 INNER ITERATIONS.
    ------------------------------------------------

 NO OUTPUT CONTROL FOR STRESS PERIOD   23   TIME STEP    4
 
 SOLVING FOR HEAD 
                                                   Max.-Head-Change                         Max.-Flux-Residual
  Residual-Control   Outer-Iter.   Inner-Iter.     Column Row Layer    Maximum-Head-Change  Column Row Layer    Maximum-Flux-Residual          L2-NORM 
          0                 1           2             4    7     1       0.1221602165E+00       4    7    1         0.6414645538E+01      0.1340665709E+02
          0                 2           2             4    8     1       0.2554837713E-01       4    8    1         0.1400591061E+01      0.1835498445E+01
          0                 3           2             4    8     1      -0.1659952378E-02       4    8    1        -0.9357684696E-01      0.1428204067E+00
          0                 4           2             4    8     1       0.1129547427E-03       4    8    1         0.6518790015E-02      0.8946648666E-02
          0                 5           1             4    8     1      -0.4489140703E-05       4    8    1        -0.2652327389E-03      0.3417311935E-03

    ------------------------------------------------
       NWT REQUIRED            5 OUTER ITERATIONS 
       AND A TOTAL OF          9 INNER ITERATIONS.
    ------------------------------------------------

 NO OUTPUT CONTROL FOR STRESS PERIOD   23   TIME STEP    5
 
 SOLVING FOR HEAD 
                                                   Max.-Head-Change                         Max.-Flux-Residual
  Residual-Control   Outer-Iter.   Inner-Iter.     Column Row Layer    Maximum-Head-Change  Column Row Layer    Maximum-Flux-Residual          L2-NORM 
          0                 1           2             4    7     1       0.1212534994E+00       4    7    1         0.6370424625E+01      0.1317031234E+02
          0                 2           2             5    7     1       0.2357383550E-01       5    7    1         0.1325522865E+01      0.1790480876E+01
          0                 3           2             5    7     1       0.5816075352E-02       5    7    1         0.3194340672E+00      0.3305386269E+00
          0                 4           2             5    7     1       0.1117411167E-02       5    7    1         0.6175139184E-01      0.6183061209E-01
          0                 5           2             5    7     1      -0.1086375594E-03       5    7    1        -0.6171797413E-02      0.6174310066E-02
          0                 6           1             5    7     1       0.7392506210E-05       5    7    1         0.4317372777E-03      0.4319212244E-03

    ------------------------------------------------
       NWT REQUIRED            6 OUTER ITERATIONS 
       AND A TOTAL OF         11 INNER ITERATIONS.
    ------------------------------------------------

 NO OUTPUT CONTROL FOR STRESS PERIOD   23   TIME STEP    6
 
 SOLVING FOR HEAD 
                                                   Max.-Head-Change                         Max.-Flux-Residual
  Residual-Control   Outer-Iter.   Inner-Iter.     Column Row Layer    Maximum-Head-Change  Column Row Layer    Maximum-Flux-Residual          L2-NORM 
          0                 1           2             4    7     1       0.1205021133E+00       4    7    1         0.6335566202E+01      0.1293991906E+02
          0                 2           2             5    6     1       0.1232365308E-01       5    6    1         0.6976251938E+00      0.1399274819E+01
          0                 3           2             5    6     1       0.3043314322E-02       5    6    1         0.1666755827E+00      0.1871613939E+00
          0                 4           2             5    6     1       0.7515519021E-03       5    6    1         0.4151207978E-01      0.4164665885E-01
          0                 5           2             5    6     1       0.1855968169E-03       5    6    1         0.1023781977E-01      0.1023850304E-01
          0                 6           1             5    6     1       0.4583341644E-04       5    6    1         0.2528224676E-02      0.2528393602E-02

    ------------------------------------------------
       NWT REQUIRED            6 OUTER ITERATIONS 
       AND A TOTAL OF         11 INNER ITERATIONS.
    ------------------------------------------------

 NO OUTPUT CONTROL FOR STRESS PERIOD   23   TIME STEP    7
 
 SOLVING FOR HEAD 
                                                   Max.-Head-Change                         Max.-Flux-Residual
  Residual-Control   Outer-Iter.   Inner-Iter.     Column Row Layer    Maximum-Head-Change  Column Row Layer    Maximum-Flux-Residual          L2-NORM 
          0                 1           2             4    7     1       0.1190879970E+00       4    7    1         0.6261617813E+01      0.1272206796E+02
          0                 2           2             4    7     1      -0.1153907821E-01       4    7    1        -0.6258375502E+00      0.1253353778E+01
          0                 3           2             4    6     1      -0.1663787638E-02       4    6    1        -0.9313540038E-01      0.1293789685E+00
          0                 4           2             4    6     1       0.1132313270E-03       4    6    1         0.6498408126E-02      0.8007583734E-02
          0                 5           1             4    6     1      -0.4501173755E-05       4    6    1        -0.2648421837E-03      0.3042626408E-03

    ------------------------------------------------
       NWT REQUIRED            5 OUTER ITERATIONS 
       AND A TOTAL OF          9 INNER ITERATIONS.
    ------------------------------------------------

 NO OUTPUT CONTROL FOR STRESS PERIOD   23   TIME STEP    8
 
 SOLVING FOR HEAD 
                                                   Max.-Head-Change                         Max.-Flux-Residual
  Residual-Control   Outer-Iter.   Inner-Iter.     Column Row Layer    Maximum-Head-Change  Column Row Layer    Maximum-Flux-Residual          L2-NORM 
          0                 1           2             4    7     1       0.1176753482E+00       4    7    1         0.6187922705E+01      0.1251557933E+02
          0                 2           2             4    6     1       0.2556678258E-01       4    6    1         0.1384090184E+01      0.2077404786E+01
          0                 3           2             4    6     1       0.6139623388E-02       4    6    1         0.3299494876E+00      0.4594779519E+00
          0                 4           2             4    7     1       0.1472443030E-02       4    7    1         0.8064641801E-01      0.8717397697E-01
          0                 5           1             4    7     1      -0.7463425241E-04       4    7    1        -0.4212599610E-02      0.4823932585E-02

    ------------------------------------------------
       NWT REQUIRED            5 OUTER ITERATIONS 
       AND A TOTAL OF          9 INNER ITERATIONS.
    ------------------------------------------------

 NO OUTPUT CONTROL FOR STRESS PERIOD   23   TIME STEP    9
 
 SOLVING FOR HEAD 
                                                   Max.-Head-Change                         Max.-Flux-Residual
  Residual-Control   Outer-Iter.   Inner-Iter.     Column Row Layer    Maximum-Head-Change  Column Row Layer    Maximum-Flux-Residual          L2-NORM 
          0                 1           2             4    7     1       0.1148183469E+00       4    7    1         0.6037055240E+01      0.1178129803E+02
          0                 2           2             4    7     1      -0.1116285413E-01       4    7    1        -0.6033927067E+00      0.1177534441E+01
          0                 3           2             4    7     1       0.7595741362E-03       4    7    1         0.4220554099E-01      0.8236841411E-01
          0                 4           1             4    7     1      -0.3018626052E-04       4    7    1        -0.1724043873E-02      0.3364871196E-02

    ------------------------------------------------
       NWT REQUIRED            4 OUTER ITERATIONS 
       AND A TOTAL OF          7 INNER ITERATIONS.
    ------------------------------------------------

 NO OUTPUT CONTROL FOR STRESS PERIOD   23   TIME STEP   10
 
 SOLVING FOR HEAD 
                                                   Max.-Head-Change                         Max.-Flux-Residual
  Residual-Control   Outer-Iter.   Inner-Iter.     Column Row Layer    Maximum-Head-Change  Column Row Layer    Maximum-Flux-Residual          L2-NORM 
          0                 1           2             4    7     1       0.1134277688E+00       4    7    1         0.5965681554E+01      0.1158511346E+02
          0                 2           2             4    7     1      -0.1084919905E-01       4    7    1        -0.5962593956E+00      0.1108320288E+01
          0                 3           2             4    8     1       0.1516167864E-02       4    8    1         0.8155831672E-01      0.1101121723E+00
          0                 4           2             4    8     1       0.3832650205E-03       4    8    1         0.2082506257E-01      0.2103686293E-01
          0                 5           1             4    8     1       0.9688360025E-04       4    8    1         0.5256237915E-02      0.5256639509E-02

    ------------------------------------------------
       NWT REQUIRED            5 OUTER ITERATIONS 
       AND A TOTAL OF          9 INNER ITERATIONS.
    ------------------------------------------------

 NO OUTPUT CONTROL FOR STRESS PERIOD   23   TIME STEP   11
 
 SOLVING FOR HEAD 
                                                   Max.-Head-Change                         Max.-Flux-Residual
  Residual-Control   Outer-Iter.   Inner-Iter.     Column Row Layer    Maximum-Head-Change  Column Row Layer    Maximum-Flux-Residual          L2-NORM 
          0                 1           2             4    7     1       0.1122224879E+00       4    7    1         0.5904742214E+01      0.1138759928E+02
          0                 2           2             4    8     1       0.1782907647E-01       4    8    1         0.9776987567E+00      0.1350180507E+01
          0                 3           2             4    8     1      -0.1733661060E-02       4    8    1        -0.9743084897E-01      0.1208407217E+00
          0                 4           2             5    7     1      -0.1319339746E-03       5    7    1        -0.7440617767E-02      0.1043549539E-01
          0                 5           1             5    7     1      -0.3522913922E-04       5    7    1        -0.2001338704E-02      0.2020591756E-02

    ------------------------------------------------
       NWT REQUIRED            5 OUTER ITERATIONS 
       AND A TOTAL OF          9 INNER ITERATIONS.
    ------------------------------------------------

 NO OUTPUT CONTROL FOR STRESS PERIOD   23   TIME STEP   12
 
 SOLVING FOR HEAD 
                                                   Max.-Head-Change                         Max.-Flux-Residual
  Residual-Control   Outer-Iter.   Inner-Iter.     Column Row Layer    Maximum-Head-Change  Column Row Layer    Maximum-Flux-Residual          L2-NORM 
          0                 1           2             4    7     1       0.1111763566E+00       4    7    1         0.5852761213E+01      0.1119133543E+02
          0                 2           2             5    7     1       0.2139613673E-01       5    7    1         0.1201277390E+01      0.1575548220E+01
          0                 3           2             5    7     1       0.5175136511E-02       5    7    1         0.2845836127E+00      0.2935406591E+00
          0                 4           2             5    7     1      -0.5031401221E-03       5    7    1        -0.2853992945E-01      0.2866362131E-01
          0                 5           1             5    7     1       0.3423734080E-04       5    7    1         0.2000172151E-02      0.2000667672E-02

    ------------------------------------------------
       NWT REQUIRED            5 OUTER ITERATIONS 
       AND A TOTAL OF          9 INNER ITERATIONS.
    ------------------------------------------------

 NO OUTPUT CONTROL FOR STRESS PERIOD   23   TIME STEP   13
 
 SOLVING FOR HEAD 
                                                   Max.-Head-Change                         Max.-Flux-Residual
  Residual-Control   Outer-Iter.   Inner-Iter.     Column Row Layer    Maximum-Head-Change  Column Row Layer    Maximum-Flux-Residual          L2-NORM 
          0                 1           2             4    7     1       0.1102344896E+00       4    7    1         0.5807015983E+01      0.1100124901E+02
          0                 2           2             4    6     1      -0.8950014140E-02       4    6    1        -0.4928832301E+00      0.9439388120E+00
          0                 3           2             4    7     1      -0.7612077996E-03       4    7    1        -0.4395219282E-01      0.7873800342E-01
          0                 4           1             4    7     1      -0.2071167457E-03       4    7    1        -0.1153437109E-01      0.1184490157E-01
          0                 5           1             4    7     1      -0.5635330598E-04       4    7    1        -0.3153856400E-02      0.3153934397E-02

    ------------------------------------------------
       NWT REQUIRED            5 OUTER ITERATIONS 
       AND A TOTAL OF          8 INNER ITERATIONS.
    ------------------------------------------------

 NO OUTPUT CONTROL FOR STRESS PERIOD   23   TIME STEP   14
 
 SOLVING FOR HEAD 
                                                   Max.-Head-Change                         Max.-Flux-Residual
  Residual-Control   Outer-Iter.   Inner-Iter.     Column Row Layer    Maximum-Head-Change  Column Row Layer    Maximum-Flux-Residual          L2-NORM 
          0                 1           2             4    7     1       0.1084059145E+00       4    7    1         0.5710631644E+01      0.1083150970E+02
          0                 2           2             4    7     1       0.2671252367E-01       4    7    1         0.1462642764E+01      0.1638678461E+01
          0                 3           2             4    7     1      -0.2607807589E-02       4    7    1        -0.1481170419E+00      0.1739580114E+00
          0                 4           2             4    6     1       0.3169396493E-03       4    6    1         0.1701622838E-01      0.2162745458E-01
          0                 5           1             4    6     1       0.8038734006E-04       4    6    1         0.4357045441E-02      0.4853853794E-02

    ------------------------------------------------
       NWT REQUIRED            5 OUTER ITERATIONS 
       AND A TOTAL OF          9 INNER ITERATIONS.
    ------------------------------------------------

 NO OUTPUT CONTROL FOR STRESS PERIOD   23   TIME STEP   15
 
 SOLVING FOR HEAD 
                                                   Max.-Head-Change                         Max.-Flux-Residual
  Residual-Control   Outer-Iter.   Inner-Iter.     Column Row Layer    Maximum-Head-Change  Column Row Layer    Maximum-Flux-Residual          L2-NORM 
          0                 1           2             4    7     1       0.1053663296E+00       4    7    1         0.5549823723E+01      0.1064473416E+02
          0                 2           2             4    6     1       0.1973454450E-01       4    6    1         0.1070213581E+01      0.1688859002E+01
          0                 3           2             5    6     1       0.4371288227E-02       5    6    1         0.2422902489E+00      0.2719017460E+00
          0                 4           2             5    6     1       0.1079431898E-02       5    6    1         0.5946081055E-01      0.5998970462E-01
          0                 5           2             5    6     1       0.2665520304E-03       5    6    1         0.1470979863E-01      0.1471246491E-01
          0                 6           1             5    6     1       0.6582163086E-04       5    6    1         0.3631025120E-02      0.3631233287E-02

    ------------------------------------------------
       NWT REQUIRED            6 OUTER ITERATIONS 
       AND A TOTAL OF         11 INNER ITERATIONS.
    ------------------------------------------------

 NO OUTPUT CONTROL FOR STRESS PERIOD   23   TIME STEP   16
 
 SOLVING FOR HEAD 
                                                   Max.-Head-Change                         Max.-Flux-Residual
  Residual-Control   Outer-Iter.   Inner-Iter.     Column Row Layer    Maximum-Head-Change  Column Row Layer    Maximum-Flux-Residual          L2-NORM 
          0                 1           2             4    7     1       0.1043148816E+00       4    7    1         0.5496100714E+01      0.1046565460E+02
          0                 2           2             4    7     1      -0.1014132454E-01       4    7    1        -0.5493281428E+00      0.1030245486E+01
          0                 3           2             4    7     1       0.6900651918E-03       4    7    1         0.3842392339E-01      0.7206642966E-01
          0                 4           1             4    7     1      -0.2742398133E-04       4    7    1        -0.1569573710E-02      0.2944081567E-02

    ------------------------------------------------
       NWT REQUIRED            4 OUTER ITERATIONS 
       AND A TOTAL OF          7 INNER ITERATIONS.
    ------------------------------------------------

 NO OUTPUT CONTROL FOR STRESS PERIOD   23   TIME STEP   17
 
 SOLVING FOR HEAD 
                                                   Max.-Head-Change                         Max.-Flux-Residual
  Residual-Control   Outer-Iter.   Inner-Iter.     Column Row Layer    Maximum-Head-Change  Column Row Layer    Maximum-Flux-Residual          L2-NORM 
          0                 1           2             4    7     1       0.1028601020E+00       4    7    1         0.5419982984E+01      0.1031461364E+02
          0                 2           2             4    7     1      -0.1000029584E-01       4    7    1        -0.5417202742E+00      0.1030950545E+01
          0                 3           2             4    7     1       0.6804689468E-03       4    7    1         0.3789177709E-01      0.7211576128E-01
          0                 4           1             4    7     1      -0.2704261747E-04       4    7    1        -0.1547836272E-02      0.2946094934E-02

    ------------------------------------------------
       NWT REQUIRED            4 OUTER ITERATIONS 
       AND A TOTAL OF          7 INNER ITERATIONS.
    ------------------------------------------------

 NO OUTPUT CONTROL FOR STRESS PERIOD   23   TIME STEP   18
 
 SOLVING FOR HEAD 
                                                   Max.-Head-Change                         Max.-Flux-Residual
  Residual-Control   Outer-Iter.   Inner-Iter.     Column Row Layer    Maximum-Head-Change  Column Row Layer    Maximum-Flux-Residual          L2-NORM 
          0                 1           2             4    7     1       0.1007990072E+00       4    7    1         0.5344374326E+01      0.9483334434E+01
          0                 2           2             4    7     1      -0.9800064672E-02       4    7    1        -0.5341735504E+00      0.9478748410E+00
          0                 3           2             4    7     1       0.6668459848E-03       4    7    1         0.3736399900E-01      0.6630517961E-01
          0                 4           1             4    7     1      -0.2650142438E-04       4    7    1        -0.1526289316E-02      0.2708764681E-02

    ------------------------------------------------
       NWT REQUIRED            4 OUTER ITERATIONS 
       AND A TOTAL OF          7 INNER ITERATIONS.
    ------------------------------------------------

 NO OUTPUT CONTROL FOR STRESS PERIOD   23   TIME STEP   19
 
 SOLVING FOR HEAD 
                                                   Max.-Head-Change                         Max.-Flux-Residual
  Residual-Control   Outer-Iter.   Inner-Iter.     Column Row Layer    Maximum-Head-Change  Column Row Layer    Maximum-Flux-Residual          L2-NORM 
          0                 1           2             4    7     1       0.9812278757E-01       4    7    1         0.5237276809E+01      0.8589195811E+01
          0                 2           2             4    7     1      -0.9288015792E-02       4    7    1        -0.5093509896E+00      0.8499781972E+00
          0                 3           2             4    6     1       0.5455577311E-03       4    6    1         0.3068605576E-01      0.5223528128E-01
          0                 4           1             4    6     1      -0.2168144966E-04       4    6    1        -0.1253506329E-02      0.2134097285E-02

    ------------------------------------------------
       NWT REQUIRED            4 OUTER ITERATIONS 
       AND A TOTAL OF          7 INNER ITERATIONS.
    ------------------------------------------------

 NO OUTPUT CONTROL FOR STRESS PERIOD   23   TIME STEP   20
 
 SOLVING FOR HEAD 
                                                   Max.-Head-Change                         Max.-Flux-Residual
  Residual-Control   Outer-Iter.   Inner-Iter.     Column Row Layer    Maximum-Head-Change  Column Row Layer    Maximum-Flux-Residual          L2-NORM 
          0                 1           2             4    7     1       0.9558371818E-01       4    7    1         0.5098233783E+01      0.8437450320E+01
          0                 2           2             4    7     1       0.2112906492E-01       4    7    1         0.1163490317E+01      0.1343606882E+01
          0                 3           2             4    7     1       0.5305319881E-02       4    7    1         0.2884705819E+00      0.2923686653E+00
          0                 4           1             4    7     1       0.1332122197E-02       4    7    1         0.7265999387E-01      0.7267967842E-01
          0                 5           1             4    7     1       0.3344848762E-03       4    7    1         0.1823504239E-01      0.1823564412E-01
          0                 6           1             4    7     1       0.8398640458E-04       4    7    1         0.4578767558E-02      0.4578909885E-02

    ------------------------------------------------
       NWT REQUIRED            6 OUTER ITERATIONS 
       AND A TOTAL OF          9 INNER ITERATIONS.
    ------------------------------------------------

 NO OUTPUT CONTROL FOR STRESS PERIOD   23   TIME STEP   21
 
 SOLVING FOR HEAD 
                                                   Max.-Head-Change                         Max.-Flux-Residual
  Residual-Control   Outer-Iter.   Inner-Iter.     Column Row Layer    Maximum-Head-Change  Column Row Layer    Maximum-Flux-Residual          L2-NORM 
          0                 1           2             4    7     1       0.9126568710E-01       4    7    1         0.4862075664E+01      0.7656205409E+01
          0                 2           2             4    6     1      -0.7729752250E-02       4    6    1        -0.4266366892E+00      0.6607122490E+00
          0                 3           2             4    6     1       0.5259785523E-03       4    6    1         0.2984244799E-01      0.4622059089E-01
          0                 4           1             4    6     1      -0.2090354755E-04       4    6    1        -0.1219058523E-02      0.1888427065E-02

    ------------------------------------------------
       NWT REQUIRED            4 OUTER ITERATIONS 
       AND A TOTAL OF          7 INNER ITERATIONS.
    ------------------------------------------------

 NO OUTPUT CONTROL FOR STRESS PERIOD   23   TIME STEP   22
 
 SOLVING FOR HEAD 
                                                   Max.-Head-Change                         Max.-Flux-Residual
  Residual-Control   Outer-Iter.   Inner-Iter.     Column Row Layer    Maximum-Head-Change  Column Row Layer    Maximum-Flux-Residual          L2-NORM 
          0                 1           2             4    7     1       0.8888423735E-01       4    7    1         0.4732955201E+01      0.7513453513E+01
          0                 2           2             4    6     1       0.1416926822E-01       4    6    1         0.7822444554E+00      0.1001551275E+01
          0                 3           2             4    6     1       0.3556468433E-02       4    6    1         0.1933034055E+00      0.1982705136E+00
          0                 4           2             4    6     1       0.8926731118E-03       4    6    1         0.4870829231E-01      0.4873612473E-01
          0                 5           2             4    6     1       0.2240607330E-03       4    6    1         0.1221825362E-01      0.1221867723E-01
          0                 6           1             4    6     1       0.5623919924E-04       4    6    1         0.3066840356E-02      0.3066938067E-02

    ------------------------------------------------
       NWT REQUIRED            6 OUTER ITERATIONS 
       AND A TOTAL OF         11 INNER ITERATIONS.
    ------------------------------------------------

 NO OUTPUT CONTROL FOR STRESS PERIOD   23   TIME STEP   23
 
 SOLVING FOR HEAD 
                                                   Max.-Head-Change                         Max.-Flux-Residual
  Residual-Control   Outer-Iter.   Inner-Iter.     Column Row Layer    Maximum-Head-Change  Column Row Layer    Maximum-Flux-Residual          L2-NORM 
          0                 1           2             4    6     1       0.7405590036E-01       4    6    1         0.3977993154E+01      0.6135027658E+01
          0                 2           2             4    6     1       0.8068052129E-02       4    6    1         0.4461694154E+00      0.6457862888E+00
          0                 3           2             4    6     1      -0.7843975994E-03       4    6    1        -0.4441954975E-01      0.5523720770E-01
          0                 4           1             4    6     1       0.5337603829E-04       4    6    1         0.3095287017E-02      0.3380317444E-02

    ------------------------------------------------
       NWT REQUIRED            4 OUTER ITERATIONS 
       AND A TOTAL OF          7 INNER ITERATIONS.
    ------------------------------------------------

 NO OUTPUT CONTROL FOR STRESS PERIOD   23   TIME STEP   24
 
 SOLVING FOR HEAD 
                                                   Max.-Head-Change                         Max.-Flux-Residual
  Residual-Control   Outer-Iter.   Inner-Iter.     Column Row Layer    Maximum-Head-Change  Column Row Layer    Maximum-Flux-Residual          L2-NORM 
          0                 1           2             4    6     1       0.7096513583E-01       4    6    1         0.3807824432E+01      0.6011721109E+01
          0                 2           2             4    6     1      -0.6899454141E-02       4    6    1        -0.3805896565E+00      0.6009107905E+00
          0                 3           2             4    6     1       0.4694800701E-03       4    6    1         0.2662152446E-01      0.4203788948E-01
          0                 4           1             4    6     1      -0.1865818276E-04       4    6    1        -0.1087483664E-02      0.1717590821E-02

    ------------------------------------------------
       NWT REQUIRED            4 OUTER ITERATIONS 
       AND A TOTAL OF          7 INNER ITERATIONS.
    ------------------------------------------------

 NO OUTPUT CONTROL FOR STRESS PERIOD   23   TIME STEP   25
 
 SOLVING FOR HEAD 
                                                   Max.-Head-Change                         Max.-Flux-Residual
  Residual-Control   Outer-Iter.   Inner-Iter.     Column Row Layer    Maximum-Head-Change  Column Row Layer    Maximum-Flux-Residual          L2-NORM 
          0                 1           2             4    6     1       0.6876955625E-01       4    6    1         0.3687225084E+01      0.5912812435E+01
          0                 2           2             4    6     1      -0.6685986567E-02       4    6    1        -0.3685353744E+00      0.5910247301E+00
          0                 3           2             4    6     1       0.4549543200E-03       4    6    1         0.2577833875E-01      0.4134636138E-01
          0                 4           1             4    6     1      -0.1808088519E-04       4    6    1        -0.1053038688E-02      0.1689350193E-02

    ------------------------------------------------
       NWT REQUIRED            4 OUTER ITERATIONS 
       AND A TOTAL OF          7 INNER ITERATIONS.
    ------------------------------------------------

 NO OUTPUT CONTROL FOR STRESS PERIOD   23   TIME STEP   26
 
 SOLVING FOR HEAD 
                                                   Max.-Head-Change                         Max.-Flux-Residual
  Residual-Control   Outer-Iter.   Inner-Iter.     Column Row Layer    Maximum-Head-Change  Column Row Layer    Maximum-Flux-Residual          L2-NORM 
          0                 1           2             4    6     1       0.6669120166E-01       4    6    1         0.3573153173E+01      0.5818861475E+01
          0                 2           2             4    6     1      -0.6483916533E-02       4    6    1        -0.3571335448E+00      0.5816342314E+00
          0                 3           2             4    6     1       0.4412041390E-03       4    6    1         0.2498079183E-01      0.4068951170E-01
          0                 4           1             4    6     1      -0.1753441212E-04       4    6    1        -0.1020458167E-02      0.1662514801E-02

    ------------------------------------------------
       NWT REQUIRED            4 OUTER ITERATIONS 
       AND A TOTAL OF          7 INNER ITERATIONS.
    ------------------------------------------------

 NO OUTPUT CONTROL FOR STRESS PERIOD   23   TIME STEP   27
 
 SOLVING FOR HEAD 
                                                   Max.-Head-Change                         Max.-Flux-Residual
  Residual-Control   Outer-Iter.   Inner-Iter.     Column Row Layer    Maximum-Head-Change  Column Row Layer    Maximum-Flux-Residual          L2-NORM 
          0                 1           2             4    6     1       0.6472205738E-01       4    6    1         0.3465159143E+01      0.5729389667E+01
          0                 2           2             4    6     1      -0.6292464784E-02       4    6    1        -0.3463392318E+00      0.5726914155E+00
          0                 3           2             4    6     1       0.4281765006E-03       4    6    1         0.2422574046E-01      0.4006397869E-01
          0                 4           1             4    6     1      -0.1701665498E-04       4    6    1        -0.9896136366E-03      0.1636961151E-02

    ------------------------------------------------
       NWT REQUIRED            4 OUTER ITERATIONS 
       AND A TOTAL OF          7 INNER ITERATIONS.
    ------------------------------------------------

 NO OUTPUT CONTROL FOR STRESS PERIOD   23   TIME STEP   28
 
 SOLVING FOR HEAD 
                                                   Max.-Head-Change                         Max.-Flux-Residual
  Residual-Control   Outer-Iter.   Inner-Iter.     Column Row Layer    Maximum-Head-Change  Column Row Layer    Maximum-Flux-Residual          L2-NORM 
          0                 1           2             4    7     1       0.4210225975E-01       4    7    1         0.2228743532E+01      0.4633140744E+01
          0                 2           2             4    7     1      -0.4093241060E-02       4    7    1        -0.2227573177E+00      0.4631348856E+00
          0                 3           2             4    7     1       0.2785255960E-03       4    7    1         0.1558131931E-01      0.3240191709E-01
          0                 4           1             4    7     1      -0.1106899253E-04       4    7    1        -0.6364828146E-03      0.1324047017E-02

    ------------------------------------------------
       NWT REQUIRED            4 OUTER ITERATIONS 
       AND A TOTAL OF          7 INNER ITERATIONS.
    ------------------------------------------------

 NO OUTPUT CONTROL FOR STRESS PERIOD   23   TIME STEP   29
 
 SOLVING FOR HEAD 
                                                   Max.-Head-Change                         Max.-Flux-Residual
  Residual-Control   Outer-Iter.   Inner-Iter.     Column Row Layer    Maximum-Head-Change  Column Row Layer    Maximum-Flux-Residual          L2-NORM 
          0                 1           2             4    7     1       0.4134255335E-01       4    7    1         0.2187553183E+01      0.4574990868E+01
          0                 2           2             4    7     1      -0.4019379397E-02       4    7    1        -0.2186403176E+00      0.4573219737E+00
          0                 3           2             4    7     1       0.2734995920E-03       4    7    1         0.1529334102E-01      0.3199526463E-01
          0                 4           1             4    7     1      -0.1086924672E-04       4    7    1        -0.6247188062E-03      0.1307461062E-02

    ------------------------------------------------
       NWT REQUIRED            4 OUTER ITERATIONS 
       AND A TOTAL OF          7 INNER ITERATIONS.
    ------------------------------------------------

 NO OUTPUT CONTROL FOR STRESS PERIOD   23   TIME STEP   30



 STREAM LISTING     PERIOD     23   STEP       30

 LAYER ROW COL. STREAM  RCH.  FLOW INTO     FLOW TO   FLOW OUT OF   OVRLND.     DIRECT     STREAM       STREAM     STREAM     STREAM   STREAMBED  STREAMBED
                SEG.NO.  NO.  STRM. RCH.    AQUIFER    STRM. RCH.    RUNOFF     PRECIP       ET          HEAD       DEPTH      WIDTH   CONDCTNC.   GRADIENT

   1    1    1     1     1    2.2000E+01  2.3088E-01   2.1769E+01  0.000E+00  0.000E+00  0.000E+00  1.09418E+03  1.132E+00  1.242E+01  5.588E-02  1.377E+00
   1    2    2     1     2    2.1769E+01  3.5689E-01   2.1413E+01  0.000E+00  0.000E+00  0.000E+00  1.08919E+03  1.127E+00  1.235E+01  8.648E-02  1.376E+00
   1    3    3     1     3    2.1413E+01  3.0372E-01   2.1109E+01  0.000E+00  0.000E+00  0.000E+00  1.08354E+03  1.121E+00  1.228E+01  7.369E-02  1.374E+00
   1    3    4     1     4    2.1109E+01  2.7914E-01   2.0830E+01  0.000E+00  0.000E+00  0.000E+00  1.07852E+03  1.117E+00  1.222E+01  6.781E-02  1.372E+00
   1    4    5     2     1    1.8830E+01  3.1306E-01   1.8517E+01  0.000E+00  0.000E+00  0.000E+00  1.07295E+03  1.014E+00  1.200E+01  7.800E-02  1.338E+00
   1    5    6     2     2    1.8517E+01  2.4027E-01   1.8276E+01  0.000E+00  0.000E+00  0.000E+00  1.06751E+03  1.005E+00  1.200E+01  6.000E-02  1.335E+00
   1    6    6     2     3    1.8276E+01  2.3980E-01   1.8037E+01  0.000E+00  0.000E+00  0.000E+00  1.06279E+03  9.967E-01  1.200E+01  6.000E-02  1.332E+00
   1    7    6     2     4    1.8037E+01  2.3933E-01   1.7797E+01  0.000E+00  0.000E+00  0.000E+00  1.05806E+03  9.888E-01  1.200E+01  6.000E-02  1.330E+00
   1    8    6     2     5    1.7797E+01  2.3885E-01   1.7558E+01  0.000E+00  0.000E+00  0.000E+00  1.05334E+03  9.808E-01  1.200E+01  6.000E-02  1.327E+00
   1    3    5     3     1    2.0000E+00  2.8252E-01   1.7175E+00  0.000E+00  0.000E+00  0.000E+00  1.07555E+03  1.909E+00  9.636E+00  7.227E-02  1.955E+00
   1    3    6     3     2    1.7175E+00  2.4905E-01   1.4684E+00  0.000E+00  0.000E+00  0.000E+00  1.07264E+03  1.727E+00  8.909E+00  6.682E-02  1.864E+00
   1    3    7     3     3    1.4684E+00  1.9718E-01   1.2712E+00  0.000E+00  0.000E+00  0.000E+00  1.06987E+03  1.555E+00  8.218E+00  5.547E-02  1.777E+00
   1    4    8     3     4    1.2712E+00  2.2567E-01   1.0456E+00  0.000E+00  0.000E+00  0.000E+00  1.06682E+03  1.364E+00  7.455E+00  6.709E-02  1.682E+00
   1    5    8     3     5    1.0456E+00  1.5790E-01   8.8768E-01  0.000E+00  0.000E+00  0.000E+00  1.06362E+03  1.164E+00  6.655E+00  4.991E-02  1.582E+00
   1    6    8     3     6    8.8768E-01  5.5980E-02   8.3170E-01  0.000E+00  0.000E+00  0.000E+00  1.06158E+03  1.036E+00  6.145E+00  1.844E-02  1.518E+00
   1    5   10     4     1    1.0000E+01  9.0919E-02   9.9091E+00  0.000E+00  0.000E+00  0.000E+00  1.07836E+03  6.368E-01  1.000E+01  2.500E-02  1.212E+00
   1    5    9     4     2    9.9091E+00  1.8158E-01   9.7275E+00  0.000E+00  0.000E+00  0.000E+00  1.07154E+03  6.315E-01  1.000E+01  5.000E-02  1.211E+00
   1    6    8     4     3    9.7275E+00  1.2689E-01   9.6006E+00  0.000E+00  0.000E+00  0.000E+00  1.06381E+03  6.256E-01  1.000E+01  3.500E-02  1.209E+00
   1    6    8     5     1    1.0432E+01  2.2686E-01   1.0205E+01  0.000E+00  0.000E+00  0.000E+00  1.05868E+03  6.790E-01  1.542E+01  6.166E-02  1.226E+00
   1    7    7     5     2    1.0205E+01  2.7894E-01   9.9265E+00  0.000E+00  0.000E+00  0.000E+00  1.05417E+03  6.732E-01  1.519E+01  7.594E-02  1.224E+00
   1    8    7     5     3    9.9265E+00  1.9221E-01   9.7343E+00  0.000E+00  0.000E+00  0.000E+00  1.04992E+03  6.676E-01  1.497E+01  5.241E-02  1.223E+00
   1    8    6     5     4    9.7343E+00  1.3577E-01   9.5985E+00  0.000E+00  0.000E+00  0.000E+00  1.04691E+03  6.637E-01  1.482E+01  3.706E-02  1.221E+00
   1    9    6     6     1    2.7157E+01  2.5677E-01   2.6900E+01  0.000E+00  0.000E+00  0.000E+00  1.04401E+03  1.280E+00  1.200E+01  6.000E-02  1.427E+00
   1   10    7     6     2    2.6900E+01  2.5634E-01   2.6644E+01  0.000E+00  0.000E+00  0.000E+00  1.03945E+03  1.272E+00  1.200E+01  6.000E-02  1.424E+00
   1   11    7     6     3    2.6644E+01  2.5590E-01   2.6388E+01  0.000E+00  0.000E+00  0.000E+00  1.03490E+03  1.265E+00  1.200E+01  6.000E-02  1.422E+00
   1   12    7     6     4    2.6388E+01  2.5546E-01   2.6132E+01  0.000E+00  0.000E+00  0.000E+00  1.03035E+03  1.258E+00  1.200E+01  6.000E-02  1.419E+00
   1   13    7     6     5    2.6132E+01  3.4585E-03   2.6129E+01  0.000E+00  0.000E+00  0.000E+00  1.02716E+03  1.254E+00  1.200E+01  2.400E-02  4.804E-02
   1   14    9     7     1    1.5000E+02  1.3354E+00   1.4866E+02  0.000E+00  0.000E+00  0.000E+00  1.03987E+03  2.288E+00  5.529E+01  5.593E-01  7.959E-01
   1   13    8     7     2    1.4866E+02  1.8441E+00   1.4682E+02  0.000E+00  0.000E+00  0.000E+00  1.03478E+03  2.279E+00  5.526E+01  6.148E-01  9.999E-01
   1   13    7     7     3    1.4682E+02  1.4915E+00   1.4533E+02  0.000E+00  0.000E+00  0.000E+00  1.02969E+03  2.270E+00  5.522E+01  5.584E-01  8.903E-01
   1   13    6     8     1    1.7146E+02  9.5115E-01   1.7051E+02  0.000E+00  0.000E+00  0.000E+00  1.02483E+03  2.959E+00  4.290E+01  4.372E-01  7.252E-01
   1   13    5     8     2    1.7051E+02  2.0663E-01   1.7030E+02  0.000E+00  0.000E+00  0.000E+00  1.01858E+03  2.955E+00  4.285E+01  4.366E-01  1.578E-01
   1   13    4     8     3    1.7030E+02 -2.3203E+00   1.7262E+02  0.000E+00  0.000E+00  0.000E+00  1.01234E+03  2.962E+00  4.294E+01  4.376E+00 -1.767E-01
   1   13    3     8     4    1.7262E+02 -3.6110E+00   1.7623E+02  0.000E+00  0.000E+00  0.000E+00  1.00611E+03  2.981E+00  4.322E+01  4.404E+00 -2.733E-01
   1   13    2     8     5    1.7623E+02 -2.5802E+00   1.7881E+02  0.000E+00  0.000E+00  0.000E+00  9.99876E+02  3.001E+00  4.351E+01  4.434E+00 -1.940E-01
   1   13    1     8     6    1.7881E+02 -1.9989E+00   1.8081E+02  0.000E+00  0.000E+00  0.000E+00  9.94890E+02  3.015E+00  4.372E+01  2.673E+00 -2.493E-01





UNSATURATED ZONE PACKAGE VOLUMETRIC BUDGET FOR  TIME STEP    30 STRESS PERIOD   23
  ------------------------------------------------------------------------------



     CUMULATIVE VOLUMES      L**3       RATES FOR THIS TIME STEP      L**3/T
     ------------------                 ------------------------

           IN:                                      IN:
           ---                                      ---
        INFILTRATION =   919205529.6427          INFILTRATION =           0.8475

          OUT:                                     OUT:
          ----                                     ----
              UZF ET =   843267083.2380                UZF ET =           0.8475
        UZF RECHARGE =    75861190.0478          UZF RECHARGE =           0.0005

            IN - OUT =       77256.3569              IN - OUT =      -4.5091E-04

          STORAGE:                                 STORAGE:
          --------                                 --------
      STORAGE CHANGE =       77257.5193        STORAGE CHANGE =      -4.5091E-04

 PERCENT DISCREPANCY IS DIFFERENCE BETWEEN IN-OUT MINUS CHANGE IN STORAGE
 DIVIDED BY THE AVERAGE OF IN AND OUT TIMES 100

 PERCENT DISCREPANCY =           0.00     PERCENT DISCREPANCY =           0.00






1
  VOLUMETRIC BUDGET FOR AGRICULTURAL FIELDS AT  END OF TIME STEP   30, STRESS PERIOD  23
  ------------------------------------------------------------------------------

     CUMULATIVE VOLUMES      L**3       RATES FOR THIS TIME STEP      L**3/T
     ------------------                 ------------------------

           IN:                                      IN:
           ---                                      ---
               AG WELLS  =   870094720.0000                 AG WELLS  =           0.0000
      DIVERSION SEGMENTS =           0.0000        DIVERSION SEGMENTS =           0.0000
       IRRIGATION PONDS  =           0.0000         IRRIGATION PONDS  =           0.0000
           GW IRRIGATION =           0.0000             GW IRRIGATION =           0.0000
           SW IRRIGATION =           0.0000             SW IRRIGATION =           0.0000
        SYSTEM LOSSES GW =           0.0000          SYSTEM LOSSES GW =           0.0000
        SYSTEM LOSSES SW =           0.0000          SYSTEM LOSSES SW =           0.0000

                TOTAL IN =   870094720.0000                  TOTAL IN =           0.0000

          OUT:                                     OUT:
          ----                                     ----
               AG WELLS  =           0.0000                 AG WELLS  =           0.0000
      DIVERSION SEGMENTS =           0.0000        DIVERSION SEGMENTS =           0.0000
       IRRIGATION PONDS  =           0.0000         IRRIGATION PONDS  =           0.0000
           GW IRRIGATION =   870094720.0000             GW IRRIGATION =           0.0000
           SW IRRIGATION =           0.0000             SW IRRIGATION =           0.0000
        SYSTEM LOSSES GW =           0.0000          SYSTEM LOSSES GW =           0.0000
        SYSTEM LOSSES SW =           0.0000          SYSTEM LOSSES SW =           0.0000

               TOTAL OUT =   870094720.0000                 TOTAL OUT =           0.0000

                IN - OUT =           0.0000                  IN - OUT =           0.0000

     PERCENT DISCREPANCY =           0.00         PERCENT DISCREPANCY =           0.00



1
  VOLUMETRIC BUDGET FOR ENTIRE MODEL AT END OF TIME STEP   30, STRESS PERIOD  23
  ------------------------------------------------------------------------------

     CUMULATIVE VOLUMES      L**3       RATES FOR THIS TIME STEP      L**3/T
     ------------------                 ------------------------

           IN:                                      IN:
           ---                                      ---
             STORAGE     =  1093526272.0000               STORAGE     =          12.6098
       CONSTANT HEAD     =           0.0000         CONSTANT HEAD     =           0.0000
     HEAD DEP BOUNDS     =    16540727.0000       HEAD DEP BOUNDS     =           0.2857
      STREAM LEAKAGE     =   723463552.0000        STREAM LEAKAGE     =          11.7001
        UZF RECHARGE     =    75861200.0000          UZF RECHARGE     =       4.5091E-04
               GW ET     =           0.0000                 GW ET     =           0.0000
     SURFACE LEAKAGE     =           0.0000       SURFACE LEAKAGE     =           0.0000
           AG WELLS      =           0.0000             AG WELLS      =           0.0000

                TOTAL IN =  1909391744.0000                  TOTAL IN =          24.5961

          OUT:                                     OUT:
          ----                                     ----
             STORAGE     =   404135936.0000               STORAGE     =          13.7953
       CONSTANT HEAD     =           0.0000         CONSTANT HEAD     =           0.0000
     HEAD DEP BOUNDS     =    17061140.0000       HEAD DEP BOUNDS     =           0.2902
      STREAM LEAKAGE     =   600495936.0000        STREAM LEAKAGE     =          10.5105
        UZF RECHARGE     =           0.0000          UZF RECHARGE     =           0.0000
               GW ET     =    17607784.0000                 GW ET     =           0.0000
     SURFACE LEAKAGE     =           0.0000       SURFACE LEAKAGE     =           0.0000
           AG WELLS      =   870094720.0000             AG WELLS      =           0.0000

               TOTAL OUT =  1909395584.0000                 TOTAL OUT =          24.5961

                IN - OUT =       -3840.0000                  IN - OUT =       7.6294E-06

     PERCENT DISCREPANCY =          -0.00         PERCENT DISCREPANCY =           0.00






         TIME SUMMARY AT END OF TIME STEP   30 IN STRESS PERIOD   23
                    SECONDS     MINUTES      HOURS       DAYS        YEARS
                    -----------------------------------------------------------
   TIME STEP LENGTH  87667.      1461.1      24.352      1.0147     2.77799E-03
 STRESS PERIOD TIME 2.63000E+06  43833.      730.56      30.440     8.33397E-02
         TOTAL TIME 5.79467E+07 9.65778E+05  16096.      670.68      1.8362    
1
1
                            STRESS PERIOD NO.   24, LENGTH =   2630000.    
                            -----------------------------------------------

                              NUMBER OF TIME STEPS =    30

                               MULTIPLIER FOR DELT =     1.000

                            INITIAL TIME STEP SIZE =   87666.66    

 REUSING NON-PARAMETER GHB CELLS FROM LAST STRESS PERIOD

      2 GHB CELLS

 REUSING STREAM SEGMENT DATA FROM LAST STRESS PERIOD



            AREAL INFILTRATION RATE
 READING ON UNIT   19 WITH FORMAT: (FREE)              

            1           2           3           4           5           6           7           8           9          10
 ........................................................................................................................
   1   1.0000E-10  2.0000E-10   0.000       0.000       0.000       0.000       0.000       0.000       0.000       0.000    
   2   2.0000E-10  1.0000E-10  2.0000E-10   0.000       0.000      8.0000E-10  8.0000E-10  5.0000E-10   0.000       0.000    
   3    0.000      5.0000E-10  1.0000E-10  1.0000E-10  8.0000E-10  8.0000E-10  5.0000E-10  5.0000E-10   0.000       0.000    
   4   8.0000E-10  5.0000E-10  1.0000E-10  1.0000E-10  1.0000E-10  1.0000E-10  1.0000E-10  1.0000E-10  2.0000E-10   0.000    
   5   8.0000E-10  5.0000E-10  1.0000E-10  1.0000E-10  1.0000E-10  1.0000E-10  1.0000E-10  1.0000E-10  1.0000E-10  1.0000E-10
   6   8.0000E-10  5.0000E-10  5.0000E-10  2.0000E-10  2.0000E-10  1.0000E-10  1.0000E-10  1.0000E-10  1.0000E-10  5.0000E-10
   7   8.0000E-10  5.0000E-10  5.0000E-10  2.0000E-10  2.0000E-10  1.0000E-10  1.0000E-10  2.0000E-10  2.0000E-10   0.000    
   8    0.000      5.0000E-10  5.0000E-10  2.0000E-10  2.0000E-10  1.0000E-10  1.0000E-10  2.0000E-10  5.0000E-10   0.000    
   9    0.000      5.0000E-10  5.0000E-10  2.0000E-10  2.0000E-10  1.0000E-10  1.0000E-10  2.0000E-10  5.0000E-10   0.000    
  10    0.000      5.0000E-10  5.0000E-10  2.0000E-10  2.0000E-10  1.0000E-10  1.0000E-10  2.0000E-10  5.0000E-10  8.0000E-10
  11    0.000      1.0000E-10  1.0000E-10  1.0000E-10  1.0000E-10  1.0000E-10  1.0000E-10  2.0000E-10  5.0000E-10   0.000    
  12   1.0000E-10  1.0000E-10  1.0000E-10  1.0000E-10  1.0000E-10  1.0000E-10  1.0000E-10  1.0000E-10  2.0000E-10   0.000    
  13   1.0000E-10  1.0000E-10  2.0000E-10  2.0000E-10  2.0000E-10  2.0000E-10  2.0000E-10  1.0000E-10  1.0000E-10   0.000    
  14    0.000      2.0000E-10  5.0000E-10  5.0000E-10  5.0000E-10  5.0000E-10  5.0000E-10  2.0000E-10  1.0000E-10   0.000    
  15    0.000       0.000      8.0000E-10  8.0000E-10  8.0000E-10  8.0000E-10   0.000       0.000       0.000       0.000    

                  ET RATE =  5.000000E-10

 USING ET EXTINCTION DEPTH FROM PREVIOUS STRESS PERIOD. CURRENT PERIOD IS:      24

 USING EXTINCTION WATER CONTENT FROM PREVIOUS STRESS PERIOD. CURRENT PERIOD IS:      24

 USING AIR ENTRY PRESSURE FROM PREVIOUS STRESS PERIOD. CURRENT PERIOD IS:      24

 USING ROOT PRESSURE HEAD FROM PREVIOUS STRESS PERIOD. CURRENT PERIOD IS:      24

 USING ROOT ACTIVITY FROM PREVIOUS STRESS PERIOD. CURRENT PERIOD IS:      24

 PROCESSING AG STRESS PERIOD DATA

 READING AG STRESS PERIOD DATA

 READING IRRIGATION WELL

 NO IRRPOND OR REUSING IRRPOND DATA FROM LAST STRESS PERIOD

 END PROCESSING AG STRESS PERIOD DATA OPTIONS
 
 SOLVING FOR HEAD 
                                                   Max.-Head-Change                         Max.-Flux-Residual
  Residual-Control   Outer-Iter.   Inner-Iter.     Column Row Layer    Maximum-Head-Change  Column Row Layer    Maximum-Flux-Residual          L2-NORM 
          0                 1           2             4    7     1       0.4061349335E-01       4    7    1         0.2148068605E+01      0.4519153968E+01
          0                 2           2             4    7     1      -0.3948497336E-02       4    7    1        -0.2146938153E+00      0.4517045881E+00
          0                 3           2             4    7     1       0.2686763423E-03       4    7    1         0.1501728902E-01      0.3160211418E-01
          0                 4           1             4    7     1      -0.1067755938E-04       4    7    1        -0.6134420128E-03      0.1291378990E-02

    ------------------------------------------------
       NWT REQUIRED            4 OUTER ITERATIONS 
       AND A TOTAL OF          7 INNER ITERATIONS.
    ------------------------------------------------

 NO OUTPUT CONTROL FOR STRESS PERIOD   24   TIME STEP    1
 
 SOLVING FOR HEAD 
                                                   Max.-Head-Change                         Max.-Flux-Residual
  Residual-Control   Outer-Iter.   Inner-Iter.     Column Row Layer    Maximum-Head-Change  Column Row Layer    Maximum-Flux-Residual          L2-NORM 
          0                 1           2             4    7     1       0.3991340519E-01       4    7    1         0.2110194896E+01      0.4465381865E+01
          0                 2           2             4    7     1      -0.3880431605E-02       4    7    1        -0.2109083249E+00      0.4463175949E+00
          0                 3           2             4    7     1       0.2640447359E-03       4    7    1         0.1475249974E-01      0.3122502036E-01
          0                 4           1             4    7     1      -0.1049348865E-04       4    7    1        -0.6026253209E-03      0.1275952141E-02

    ------------------------------------------------
       NWT REQUIRED            4 OUTER ITERATIONS 
       AND A TOTAL OF          7 INNER ITERATIONS.
    ------------------------------------------------

 NO OUTPUT CONTROL FOR STRESS PERIOD   24   TIME STEP    2
 
 SOLVING FOR HEAD 
                                                   Max.-Head-Change                         Max.-Flux-Residual
  Residual-Control   Outer-Iter.   Inner-Iter.     Column Row Layer    Maximum-Head-Change  Column Row Layer    Maximum-Flux-Residual          L2-NORM 
          0                 1           2             4    7     1       0.3924036115E-01       4    7    1         0.2073823354E+01      0.4412038514E+01
          0                 2           2             4    7     1      -0.3814996401E-02       4    7    1        -0.2072729810E+00      0.4410298146E+00
          0                 3           2             4    7     1       0.2595921299E-03       4    7    1         0.1449821316E-01      0.3085510703E-01
          0                 4           1             4    7     1      -0.1031653177E-04       4    7    1        -0.5922376754E-03      0.1260814455E-02

    ------------------------------------------------
       NWT REQUIRED            4 OUTER ITERATIONS 
       AND A TOTAL OF          7 INNER ITERATIONS.
    ------------------------------------------------

 NO OUTPUT CONTROL FOR STRESS PERIOD   24   TIME STEP    3
 
 SOLVING FOR HEAD 
                                                   Max.-Head-Change                         Max.-Flux-Residual
  Residual-Control   Outer-Iter.   Inner-Iter.     Column Row Layer    Maximum-Head-Change  Column Row Layer    Maximum-Flux-Residual          L2-NORM 
          0                 1           2             4    7     1       0.3859245367E-01       4    7    1         0.2038846638E+01      0.4360156423E+01
          0                 2           2             4    7     1      -0.3752004548E-02       4    7    1        -0.2037770546E+00      0.4358438424E+00
          0                 3           2             4    7     1       0.2553057869E-03       4    7    1         0.1425367879E-01      0.3049230804E-01
          0                 4           1             4    7     1      -0.1014618264E-04       4    7    1        -0.5822484186E-03      0.1246011223E-02

    ------------------------------------------------
       NWT REQUIRED            4 OUTER ITERATIONS 
       AND A TOTAL OF          7 INNER ITERATIONS.
    ------------------------------------------------

 NO OUTPUT CONTROL FOR STRESS PERIOD   24   TIME STEP    4
 
 SOLVING FOR HEAD 
                                                   Max.-Head-Change                         Max.-Flux-Residual
  Residual-Control   Outer-Iter.   Inner-Iter.     Column Row Layer    Maximum-Head-Change  Column Row Layer    Maximum-Flux-Residual          L2-NORM 
          0                 1           2             4    7     1       0.3796831288E-01       4    7    1         0.2005187846E+01      0.4309575624E+01
          0                 2           2             4    7     1      -0.3691323441E-02       4    7    1        -0.2004128589E+00      0.4307878895E+00
          0                 3           2             4    7     1       0.2511766840E-03       4    7    1         0.1401835893E-01      0.3013857332E-01
          0                 4           1             4    7     1      -0.9982083213E-05       4    7    1        -0.5726355976E-03      0.1231541245E-02

    ------------------------------------------------
       NWT REQUIRED            4 OUTER ITERATIONS 
       AND A TOTAL OF          7 INNER ITERATIONS.
    ------------------------------------------------

 NO OUTPUT CONTROL FOR STRESS PERIOD   24   TIME STEP    5
 
 SOLVING FOR HEAD 
                                                   Max.-Head-Change                         Max.-Flux-Residual
  Residual-Control   Outer-Iter.   Inner-Iter.     Column Row Layer    Maximum-Head-Change  Column Row Layer    Maximum-Flux-Residual          L2-NORM 
          0                 1           2             4    7     1       0.3736642507E-01       4    7    1         0.1972761315E+01      0.4260229664E+01
          0                 2           2             4    7     1      -0.3632805906E-02       4    7    1        -0.1971718315E+00      0.4258555334E+00
          0                 3           2             4    7     1       0.2471948054E-03       4    7    1         0.1379165462E-01      0.2979352543E-01
          0                 4           1             4    7     1      -0.9823834801E-05       4    7    1        -0.5633747196E-03      0.1217429661E-02

    ------------------------------------------------
       NWT REQUIRED            4 OUTER ITERATIONS 
       AND A TOTAL OF          7 INNER ITERATIONS.
    ------------------------------------------------

 NO OUTPUT CONTROL FOR STRESS PERIOD   24   TIME STEP    6
 
 SOLVING FOR HEAD 
                                                   Max.-Head-Change                         Max.-Flux-Residual
  Residual-Control   Outer-Iter.   Inner-Iter.     Column Row Layer    Maximum-Head-Change  Column Row Layer    Maximum-Flux-Residual          L2-NORM 
          0                 1           2             4    7     1       0.3678525070E-01       4    7    1         0.1941481258E+01      0.4212032420E+01
          0                 2           2             4    7     1      -0.3576302257E-02       4    7    1        -0.1940453975E+00      0.4210377751E+00
          0                 3           2             4    7     1       0.2433499660E-03       4    7    1         0.1357296606E-01      0.2945648998E-01
          0                 4           1             4    7     1      -0.9671032959E-05       4    7    1        -0.5544413057E-03      0.1203680921E-02

    ------------------------------------------------
       NWT REQUIRED            4 OUTER ITERATIONS 
       AND A TOTAL OF          7 INNER ITERATIONS.
    ------------------------------------------------

 NO OUTPUT CONTROL FOR STRESS PERIOD   24   TIME STEP    7
 
 SOLVING FOR HEAD 
                                                   Max.-Head-Change                         Max.-Flux-Residual
  Residual-Control   Outer-Iter.   Inner-Iter.     Column Row Layer    Maximum-Head-Change  Column Row Layer    Maximum-Flux-Residual          L2-NORM 
          0                 1           2             4    7     1       0.3622377314E-01       4    7    1         0.1911289765E+01      0.4164937256E+01
          0                 2           2             4    7     1      -0.3521713649E-02       4    7    1        -0.1910277687E+00      0.4163302670E+00
          0                 3           2             4    7     1       0.2396354395E-03       4    7    1         0.1336188837E-01      0.2912716091E-01
          0                 4           1             4    7     1      -0.9523409788E-05       4    7    1        -0.5458187975E-03      0.1190212940E-02

    ------------------------------------------------
       NWT REQUIRED            4 OUTER ITERATIONS 
       AND A TOTAL OF          7 INNER ITERATIONS.
    ------------------------------------------------

 NO OUTPUT CONTROL FOR STRESS PERIOD   24   TIME STEP    8
 
 SOLVING FOR HEAD 
                                                   Max.-Head-Change                         Max.-Flux-Residual
  Residual-Control   Outer-Iter.   Inner-Iter.     Column Row Layer    Maximum-Head-Change  Column Row Layer    Maximum-Flux-Residual          L2-NORM 
          0                 1           2             4    7     1       0.3568078572E-01       4    7    1         0.1882119517E+01      0.4118887008E+01
          0                 2           2             4    7     1      -0.3468922761E-02       4    7    1        -0.1881122163E+00      0.4117271985E+00
          0                 3           2             4    7     1       0.2360432429E-03       4    7    1         0.1315795086E-01      0.2880513007E-01
          0                 4           1             4    7     1      -0.9380649031E-05       4    7    1        -0.5374879929E-03      0.1177058781E-02

    ------------------------------------------------
       NWT REQUIRED            4 OUTER ITERATIONS 
       AND A TOTAL OF          7 INNER ITERATIONS.
    ------------------------------------------------

 NO OUTPUT CONTROL FOR STRESS PERIOD   24   TIME STEP    9
 
 SOLVING FOR HEAD 
                                                   Max.-Head-Change                         Max.-Flux-Residual
  Residual-Control   Outer-Iter.   Inner-Iter.     Column Row Layer    Maximum-Head-Change  Column Row Layer    Maximum-Flux-Residual          L2-NORM 
          0                 1           2             4    7     1       0.3515504082E-01       4    7    1         0.1853900644E+01      0.4073816337E+01
          0                 2           2             4    7     1      -0.3417808291E-02       4    7    1        -0.1852917562E+00      0.4072220707E+00
          0                 3           2             4    7     1       0.2325651202E-03       4    7    1         0.1296066497E-01      0.2848995544E-01
          0                 4           1             4    7     1      -0.9242421423E-05       4    7    1        -0.5294288890E-03      0.1164174386E-02

    ------------------------------------------------
       NWT REQUIRED            4 OUTER ITERATIONS 
       AND A TOTAL OF          7 INNER ITERATIONS.
    ------------------------------------------------

 NO OUTPUT CONTROL FOR STRESS PERIOD   24   TIME STEP   10
 
 SOLVING FOR HEAD 
                                                   Max.-Head-Change                         Max.-Flux-Residual
  Residual-Control   Outer-Iter.   Inner-Iter.     Column Row Layer    Maximum-Head-Change  Column Row Layer    Maximum-Flux-Residual          L2-NORM 
          0                 1           2             4    7     1       0.3464578537E-01       4    7    1         0.1826590378E+01      0.4029689787E+01
          0                 2           2             4    7     1      -0.3368297018E-02       4    7    1        -0.1825621138E+00      0.4028113156E+00
          0                 3           2             4    7     1       0.2291960910E-03       4    7    1         0.1276973174E-01      0.2818141260E-01
          0                 4           1             4    7     1      -0.9108529981E-05       4    7    1        -0.5216293198E-03      0.1151573232E-02

    ------------------------------------------------
       NWT REQUIRED            4 OUTER ITERATIONS 
       AND A TOTAL OF          7 INNER ITERATIONS.
    ------------------------------------------------

 NO OUTPUT CONTROL FOR STRESS PERIOD   24   TIME STEP   11
 
 SOLVING FOR HEAD 
                                                   Max.-Head-Change                         Max.-Flux-Residual
  Residual-Control   Outer-Iter.   Inner-Iter.     Column Row Layer    Maximum-Head-Change  Column Row Layer    Maximum-Flux-Residual          L2-NORM 
          0                 1           2             4    7     1       0.3415192611E-01       4    7    1         0.1800127753E+01      0.3986466235E+01
          0                 2           2             4    7     1      -0.3320282650E-02       4    7    1        -0.1799171952E+00      0.3984908046E+00
          0                 3           2             4    7     1       0.2259289211E-03       4    7    1         0.1258472487E-01      0.2787914698E-01
          0                 4           1             4    7     1      -0.8978686425E-05       4    7    1        -0.5140718431E-03      0.1139227994E-02

    ------------------------------------------------
       NWT REQUIRED            4 OUTER ITERATIONS 
       AND A TOTAL OF          7 INNER ITERATIONS.
    ------------------------------------------------

 NO OUTPUT CONTROL FOR STRESS PERIOD   24   TIME STEP   12
 
 SOLVING FOR HEAD 
                                                   Max.-Head-Change                         Max.-Flux-Residual
  Residual-Control   Outer-Iter.   Inner-Iter.     Column Row Layer    Maximum-Head-Change  Column Row Layer    Maximum-Flux-Residual          L2-NORM 
          0                 1           2             4    7     1       0.3367271345E-01       4    7    1         0.1774470701E+01      0.3944105450E+01
          0                 2           2             4    7     1      -0.3273692305E-02       4    7    1        -0.1773527956E+00      0.3942542246E+00
          0                 3           2             4    7     1       0.2227586522E-03       4    7    1         0.1240535023E-01      0.2758333991E-01
          0                 4           1             4    7     1      -0.8852694003E-05       4    7    1        -0.5067444586E-03      0.1127126800E-02

    ------------------------------------------------
       NWT REQUIRED            4 OUTER ITERATIONS 
       AND A TOTAL OF          7 INNER ITERATIONS.
    ------------------------------------------------

 NO OUTPUT CONTROL FOR STRESS PERIOD   24   TIME STEP   13
 
 SOLVING FOR HEAD 
                                                   Max.-Head-Change                         Max.-Flux-Residual
  Residual-Control   Outer-Iter.   Inner-Iter.     Column Row Layer    Maximum-Head-Change  Column Row Layer    Maximum-Flux-Residual          L2-NORM 
          0                 1           2             4    7     1       0.3320718935E-01       4    7    1         0.1749565740E+01      0.3902564980E+01
          0                 2           2             4    7     1      -0.3228432803E-02       4    7    1        -0.1748635690E+00      0.3900754222E+00
          0                 3           2             4    7     1       0.2196789418E-03       4    7    1         0.1223123391E-01      0.2729042452E-01
          0                 4           1             4    7     1      -0.8730300699E-05       4    7    1        -0.4996318617E-03      0.1115162797E-02

    ------------------------------------------------
       NWT REQUIRED            4 OUTER ITERATIONS 
       AND A TOTAL OF          7 INNER ITERATIONS.
    ------------------------------------------------

 NO OUTPUT CONTROL FOR STRESS PERIOD   24   TIME STEP   14
 
 SOLVING FOR HEAD 
                                                   Max.-Head-Change                         Max.-Flux-Residual
  Residual-Control   Outer-Iter.   Inner-Iter.     Column Row Layer    Maximum-Head-Change  Column Row Layer    Maximum-Flux-Residual          L2-NORM 
          0                 1           2             4    7     1       0.3275486404E-01       4    7    1         0.1725385126E+01      0.3861843909E+01
          0                 2           2             4    7     1      -0.3184456621E-02       4    7    1        -0.1724467426E+00      0.3860339545E+00
          0                 3           2             4    7     1       0.2166865571E-03       4    7    1         0.1206218189E-01      0.2700767288E-01
          0                 4           1             4    7     1      -0.8611378148E-05       4    7    1        -0.4927261493E-03      0.1103605150E-02

    ------------------------------------------------
       NWT REQUIRED            4 OUTER ITERATIONS 
       AND A TOTAL OF          7 INNER ITERATIONS.
    ------------------------------------------------

 NO OUTPUT CONTROL FOR STRESS PERIOD   24   TIME STEP   15
 
 SOLVING FOR HEAD 
                                                   Max.-Head-Change                         Max.-Flux-Residual
  Residual-Control   Outer-Iter.   Inner-Iter.     Column Row Layer    Maximum-Head-Change  Column Row Layer    Maximum-Flux-Residual          L2-NORM 
          0                 1           2             4    7     1       0.3231489057E-01       4    7    1         0.1701881532E+01      0.3821889067E+01
          0                 2           2             4    7     1      -0.3141681316E-02       4    7    1        -0.1700975857E+00      0.3820401761E+00
          0                 3           2             4    7     1       0.2137758881E-03       4    7    1         0.1189786328E-01      0.2672828251E-01
          0                 4           1             4    7     1      -0.8495703116E-05       4    7    1        -0.4860138074E-03      0.1092198155E-02

    ------------------------------------------------
       NWT REQUIRED            4 OUTER ITERATIONS 
       AND A TOTAL OF          7 INNER ITERATIONS.
    ------------------------------------------------

 NO OUTPUT CONTROL FOR STRESS PERIOD   24   TIME STEP   16
 
 SOLVING FOR HEAD 
                                                   Max.-Head-Change                         Max.-Flux-Residual
  Residual-Control   Outer-Iter.   Inner-Iter.     Column Row Layer    Maximum-Head-Change  Column Row Layer    Maximum-Flux-Residual          L2-NORM 
          0                 1           2             4    7     1       0.3188661147E-01       4    7    1         0.1679018360E+01      0.3782662700E+01
          0                 2           2             4    7     1      -0.3100042998E-02       4    7    1        -0.1678124401E+00      0.3781192370E+00
          0                 3           2             4    7     1       0.2109425877E-03       4    7    1         0.1173802223E-01      0.2645397860E-01
          0                 4           1             4    7     1      -0.8383103142E-05       4    7    1        -0.4794843808E-03      0.1080993845E-02

    ------------------------------------------------
       NWT REQUIRED            4 OUTER ITERATIONS 
       AND A TOTAL OF          7 INNER ITERATIONS.
    ------------------------------------------------

 NO OUTPUT CONTROL FOR STRESS PERIOD   24   TIME STEP   17
 
 SOLVING FOR HEAD 
                                                   Max.-Head-Change                         Max.-Flux-Residual
  Residual-Control   Outer-Iter.   Inner-Iter.     Column Row Layer    Maximum-Head-Change  Column Row Layer    Maximum-Flux-Residual          L2-NORM 
          0                 1           2             4    7     1       0.3146954552E-01       4    7    1         0.1656768831E+01      0.3744143363E+01
          0                 2           2             4    7     1      -0.3059494878E-02       4    7    1        -0.1655886292E+00      0.3742689860E+00
          0                 3           2             4    7     1       0.2081834712E-03       4    7    1         0.1158247146E-01      0.2618464459E-01
          0                 4           1             4    7     1      -0.8273450895E-05       4    7    1        -0.4731302070E-03      0.1070000586E-02

    ------------------------------------------------
       NWT REQUIRED            4 OUTER ITERATIONS 
       AND A TOTAL OF          7 INNER ITERATIONS.
    ------------------------------------------------

 NO OUTPUT CONTROL FOR STRESS PERIOD   24   TIME STEP   18
 
 SOLVING FOR HEAD 
                                                   Max.-Head-Change                         Max.-Flux-Residual
  Residual-Control   Outer-Iter.   Inner-Iter.     Column Row Layer    Maximum-Head-Change  Column Row Layer    Maximum-Flux-Residual          L2-NORM 
          0                 1           2             4    7     1       0.3106312041E-01       4    7    1         0.1635100683E+01      0.3706307288E+01
          0                 2           2             4    7     1      -0.3019981312E-02       4    7    1        -0.1634229283E+00      0.3704870302E+00
          0                 3           2             4    7     1       0.2054947525E-03       4    7    1         0.1143098542E-01      0.2592007659E-01
          0                 4           1             4    7     1      -0.8166596940E-05       4    7    1        -0.4669420887E-03      0.1059190023E-02

    ------------------------------------------------
       NWT REQUIRED            4 OUTER ITERATIONS 
       AND A TOTAL OF          7 INNER ITERATIONS.
    ------------------------------------------------

 NO OUTPUT CONTROL FOR STRESS PERIOD   24   TIME STEP   19
 
 SOLVING FOR HEAD 
                                                   Max.-Head-Change                         Max.-Flux-Residual
  Residual-Control   Outer-Iter.   Inner-Iter.     Column Row Layer    Maximum-Head-Change  Column Row Layer    Maximum-Flux-Residual          L2-NORM 
          0                 1           2             4    7     1       0.3066667053E-01       4    7    1         0.1613976932E+01      0.3669132908E+01
          0                 2           2             4    7     1      -0.2981437584E-02       4    7    1        -0.1613116407E+00      0.3667711878E+00
          0                 3           2             4    7     1       0.2028720277E-03       4    7    1         0.1128330553E-01      0.2566010328E-01
          0                 4           1             4    7     1      -0.8062365361E-05       4    7    1        -0.4609094399E-03      0.1048559311E-02

    ------------------------------------------------
       NWT REQUIRED            4 OUTER ITERATIONS 
       AND A TOTAL OF          7 INNER ITERATIONS.
    ------------------------------------------------

 NO OUTPUT CONTROL FOR STRESS PERIOD   24   TIME STEP   20
 
 SOLVING FOR HEAD 
                                                   Max.-Head-Change                         Max.-Flux-Residual
  Residual-Control   Outer-Iter.   Inner-Iter.     Column Row Layer    Maximum-Head-Change  Column Row Layer    Maximum-Flux-Residual          L2-NORM 
          0                 1           2             4    7     1       0.3027997344E-01       4    7    1         0.1593385002E+01      0.3632599473E+01
          0                 2           2             4    7     1      -0.2943838666E-02       4    7    1        -0.1592535093E+00      0.3630286624E+00
          0                 3           2             4    7     1       0.2003135941E-03       4    7    1         0.1113934385E-01      0.2539828570E-01
          0                 4           1             4    7     1      -0.7960689500E-05       4    7    1        -0.4550287044E-03      0.1037857868E-02

    ------------------------------------------------
       NWT REQUIRED            4 OUTER ITERATIONS 
       AND A TOTAL OF          7 INNER ITERATIONS.
    ------------------------------------------------

 NO OUTPUT CONTROL FOR STRESS PERIOD   24   TIME STEP   21
 
 SOLVING FOR HEAD 
                                                   Max.-Head-Change                         Max.-Flux-Residual
  Residual-Control   Outer-Iter.   Inner-Iter.     Column Row Layer    Maximum-Head-Change  Column Row Layer    Maximum-Flux-Residual          L2-NORM 
          0                 1           2             4    7     1       0.2990243804E-01       4    7    1         0.1573291605E+01      0.3596763303E+01
          0                 2           2             4    7     1      -0.2907137294E-02       4    7    1        -0.1572452069E+00      0.3595374472E+00
          0                 3           2             4    7     1       0.1978162349E-03       4    7    1         0.1099886767E-01      0.2515406746E-01
          0                 4           1             4    7     1      -0.7861440413E-05       4    7    1        -0.4492903381E-03      0.1027881405E-02

    ------------------------------------------------
       NWT REQUIRED            4 OUTER ITERATIONS 
       AND A TOTAL OF          7 INNER ITERATIONS.
    ------------------------------------------------

 NO OUTPUT CONTROL FOR STRESS PERIOD   24   TIME STEP   22
 
 SOLVING FOR HEAD 
                                                   Max.-Head-Change                         Max.-Flux-Residual
  Residual-Control   Outer-Iter.   Inner-Iter.     Column Row Layer    Maximum-Head-Change  Column Row Layer    Maximum-Flux-Residual          L2-NORM 
          0                 1           2             4    7     1       0.2953376256E-01       4    7    1         0.1553680176E+01      0.3561571739E+01
          0                 2           2             4    7     1      -0.2871293917E-02       4    7    1        -0.1552850778E+00      0.3560198019E+00
          0                 3           2             4    7     1       0.1953772591E-03       4    7    1         0.1086176111E-01      0.2490797828E-01
          0                 4           1             4    7     1      -0.7764511838E-05       4    7    1        -0.4436896311E-03      0.1017829369E-02

    ------------------------------------------------
       NWT REQUIRED            4 OUTER ITERATIONS 
       AND A TOTAL OF          7 INNER ITERATIONS.
    ------------------------------------------------

 NO OUTPUT CONTROL FOR STRESS PERIOD   24   TIME STEP   23
 
 SOLVING FOR HEAD 
                                                   Max.-Head-Change                         Max.-Flux-Residual
  Residual-Control   Outer-Iter.   Inner-Iter.     Column Row Layer    Maximum-Head-Change  Column Row Layer    Maximum-Flux-Residual          L2-NORM 
          0                 1           2             4    7     1       0.2917340914E-01       4    7    1         0.1534520984E+01      0.3526954714E+01
          0                 2           2             4    7     1      -0.2836259648E-02       4    7    1        -0.1533701502E+00      0.3525596202E+00
          0                 3           2             4    7     1       0.1929933398E-03       4    7    1         0.1072781635E-01      0.2466590942E-01
          0                 4           1             4    7     1      -0.7669770803E-05       4    7    1        -0.4382180632E-03      0.1007933467E-02

    ------------------------------------------------
       NWT REQUIRED            4 OUTER ITERATIONS 
       AND A TOTAL OF          7 INNER ITERATIONS.
    ------------------------------------------------

 NO OUTPUT CONTROL FOR STRESS PERIOD   24   TIME STEP   24
 
 SOLVING FOR HEAD 
                                                   Max.-Head-Change                         Max.-Flux-Residual
  Residual-Control   Outer-Iter.   Inner-Iter.     Column Row Layer    Maximum-Head-Change  Column Row Layer    Maximum-Flux-Residual          L2-NORM 
          0                 1           2             4    7     1       0.2882100610E-01       4    7    1         0.1515793276E+01      0.3492903108E+01
          0                 2           2             4    7     1      -0.2801998399E-02       4    7    1        -0.1514983498E+00      0.3491559949E+00
          0                 3           2             4    7     1       0.1906620213E-03       4    7    1         0.1059688829E-01      0.2442779106E-01
          0                 4           1             4    7     1      -0.7577120831E-05       4    7    1        -0.4328697455E-03      0.9982019063E-03

    ------------------------------------------------
       NWT REQUIRED            4 OUTER ITERATIONS 
       AND A TOTAL OF          7 INNER ITERATIONS.
    ------------------------------------------------

 NO OUTPUT CONTROL FOR STRESS PERIOD   24   TIME STEP   25
 
 SOLVING FOR HEAD 
                                                   Max.-Head-Change                         Max.-Flux-Residual
  Residual-Control   Outer-Iter.   Inner-Iter.     Column Row Layer    Maximum-Head-Change  Column Row Layer    Maximum-Flux-Residual          L2-NORM 
          0                 1           2             4    7     1       0.2847633978E-01       4    7    1         0.1497485092E+01      0.3459397227E+01
          0                 2           2             4    7     1      -0.2768489321E-02       4    7    1        -0.1496684812E+00      0.3458068968E+00
          0                 3           2             4    7     1       0.1883818854E-03       4    7    1         0.1046889328E-01      0.2419350732E-01
          0                 4           1             4    7     1      -0.7486504817E-05       4    7    1        -0.4276412365E-03      0.9886332492E-03

    ------------------------------------------------
       NWT REQUIRED            4 OUTER ITERATIONS 
       AND A TOTAL OF          7 INNER ITERATIONS.
    ------------------------------------------------

 NO OUTPUT CONTROL FOR STRESS PERIOD   24   TIME STEP   26
 
 SOLVING FOR HEAD 
                                                   Max.-Head-Change                         Max.-Flux-Residual
  Residual-Control   Outer-Iter.   Inner-Iter.     Column Row Layer    Maximum-Head-Change  Column Row Layer    Maximum-Flux-Residual          L2-NORM 
          0                 1           2             4    7     1       0.2813921040E-01       4    7    1         0.1479585360E+01      0.3426430228E+01
          0                 2           2             4    7     1      -0.2735712986E-02       4    7    1        -0.1478794376E+00      0.3425116385E+00
          0                 3           2             4    7     1       0.1861516103E-03       4    7    1         0.1034375393E-01      0.2396299114E-01
          0                 4           1             4    7     1      -0.7397870611E-05       4    7    1        -0.4225293947E-03      0.9792201165E-03

    ------------------------------------------------
       NWT REQUIRED            4 OUTER ITERATIONS 
       AND A TOTAL OF          7 INNER ITERATIONS.
    ------------------------------------------------

 NO OUTPUT CONTROL FOR STRESS PERIOD   24   TIME STEP   27
 
 SOLVING FOR HEAD 
                                                   Max.-Head-Change                         Max.-Flux-Residual
  Residual-Control   Outer-Iter.   Inner-Iter.     Column Row Layer    Maximum-Head-Change  Column Row Layer    Maximum-Flux-Residual          L2-NORM 
          0                 1           2             4    7     1       0.2780902951E-01       4    7    1         0.1462061774E+01      0.3393977884E+01
          0                 2           2             4    7     1      -0.2703612210E-02       4    7    1        -0.1461279901E+00      0.3392678024E+00
          0                 3           2             4    7     1       0.1839673041E-03       4    7    1         0.1022124438E-01      0.2373603697E-01
          0                 4           1             4    7     1      -0.7311062788E-05       4    7    1        -0.4175249633E-03      0.9699309921E-03

    ------------------------------------------------
       NWT REQUIRED            4 OUTER ITERATIONS 
       AND A TOTAL OF          7 INNER ITERATIONS.
    ------------------------------------------------

 NO OUTPUT CONTROL FOR STRESS PERIOD   24   TIME STEP   28
 
 SOLVING FOR HEAD 
                                                   Max.-Head-Change                         Max.-Flux-Residual
  Residual-Control   Outer-Iter.   Inner-Iter.     Column Row Layer    Maximum-Head-Change  Column Row Layer    Maximum-Flux-Residual          L2-NORM 
          0                 1           2             4    7     1       0.2748564653E-01       4    7    1         0.1444905770E+01      0.3362030954E+01
          0                 2           2             4    7     1      -0.2672172353E-02       4    7    1        -0.1444132825E+00      0.3360745271E+00
          0                 3           2             4    7     1       0.1818279709E-03       4    7    1         0.1010130470E-01      0.2351266472E-01
          0                 4           1             4    7     1      -0.7226043013E-05       4    7    1        -0.4126255399E-03      0.9608195054E-03

    ------------------------------------------------
       NWT REQUIRED            4 OUTER ITERATIONS 
       AND A TOTAL OF          7 INNER ITERATIONS.
    ------------------------------------------------

 NO OUTPUT CONTROL FOR STRESS PERIOD   24   TIME STEP   29
 
 SOLVING FOR HEAD 
                                                   Max.-Head-Change                         Max.-Flux-Residual
  Residual-Control   Outer-Iter.   Inner-Iter.     Column Row Layer    Maximum-Head-Change  Column Row Layer    Maximum-Flux-Residual          L2-NORM 
          0                 1           2             4    7     1       0.2716878773E-01       4    7    1         0.1428102224E+01      0.3330579594E+01
          0                 2           2             4    7     1      -0.2641366801E-02       4    7    1        -0.1427338033E+00      0.3329307581E+00
          0                 3           2             4    7     1       0.1797317994E-03       4    7    1         0.9983829202E-02      0.2329271502E-01
          0                 4           1             4    7     1      -0.7142738063E-05       4    7    1        -0.4078267530E-03      0.9518299216E-03

    ------------------------------------------------
       NWT REQUIRED            4 OUTER ITERATIONS 
       AND A TOTAL OF          7 INNER ITERATIONS.
    ------------------------------------------------

 NO OUTPUT CONTROL FOR STRESS PERIOD   24   TIME STEP   30



 STREAM LISTING     PERIOD     24   STEP       30

 LAYER ROW COL. STREAM  RCH.  FLOW INTO     FLOW TO   FLOW OUT OF   OVRLND.     DIRECT     STREAM       STREAM     STREAM     STREAM   STREAMBED  STREAMBED
                SEG.NO.  NO.  STRM. RCH.    AQUIFER    STRM. RCH.    RUNOFF     PRECIP       ET          HEAD       DEPTH      WIDTH   CONDCTNC.   GRADIENT

   1    1    1     1     1    2.1000E+01  2.2592E-01   2.0774E+01  0.000E+00  0.000E+00  0.000E+00  1.09416E+03  1.115E+00  1.220E+01  5.490E-02  1.372E+00
   1    2    2     1     2    2.0774E+01  3.4917E-01   2.0425E+01  0.000E+00  0.000E+00  0.000E+00  1.08917E+03  1.110E+00  1.214E+01  8.495E-02  1.370E+00
   1    3    3     1     3    2.0425E+01  2.9709E-01   2.0128E+01  0.000E+00  0.000E+00  0.000E+00  1.08352E+03  1.105E+00  1.206E+01  7.238E-02  1.368E+00
   1    3    4     1     4    2.0128E+01  2.7299E-01   1.9855E+01  0.000E+00  0.000E+00  0.000E+00  1.07851E+03  1.100E+00  1.200E+01  6.659E-02  1.367E+00
   1    4    5     2     1    1.7855E+01  3.1056E-01   1.7545E+01  0.000E+00  0.000E+00  0.000E+00  1.07292E+03  9.816E-01  1.200E+01  7.800E-02  1.327E+00
   1    5    6     2     2    1.7545E+01  2.3835E-01   1.7306E+01  0.000E+00  0.000E+00  0.000E+00  1.06748E+03  9.724E-01  1.200E+01  6.000E-02  1.324E+00
   1    6    6     2     3    1.7306E+01  2.3787E-01   1.7068E+01  0.000E+00  0.000E+00  0.000E+00  1.06276E+03  9.644E-01  1.200E+01  6.000E-02  1.321E+00
   1    7    6     2     4    1.7068E+01  2.3738E-01   1.6831E+01  0.000E+00  0.000E+00  0.000E+00  1.05803E+03  9.564E-01  1.200E+01  6.000E-02  1.319E+00
   1    8    6     2     5    1.6831E+01  2.3690E-01   1.6594E+01  0.000E+00  0.000E+00  0.000E+00  1.05331E+03  9.484E-01  1.200E+01  6.000E-02  1.316E+00
   1    3    5     3     1    2.0000E+00  2.8252E-01   1.7175E+00  0.000E+00  0.000E+00  0.000E+00  1.07555E+03  1.909E+00  9.636E+00  7.227E-02  1.955E+00
   1    3    6     3     2    1.7175E+00  2.4905E-01   1.4684E+00  0.000E+00  0.000E+00  0.000E+00  1.07264E+03  1.727E+00  8.909E+00  6.682E-02  1.864E+00
   1    3    7     3     3    1.4684E+00  1.9718E-01   1.2712E+00  0.000E+00  0.000E+00  0.000E+00  1.06987E+03  1.555E+00  8.218E+00  5.547E-02  1.777E+00
   1    4    8     3     4    1.2712E+00  2.2567E-01   1.0456E+00  0.000E+00  0.000E+00  0.000E+00  1.06682E+03  1.364E+00  7.455E+00  6.709E-02  1.682E+00
   1    5    8     3     5    1.0456E+00  1.5790E-01   8.8768E-01  0.000E+00  0.000E+00  0.000E+00  1.06362E+03  1.164E+00  6.655E+00  4.991E-02  1.582E+00
   1    6    8     3     6    8.8768E-01  5.5980E-02   8.3170E-01  0.000E+00  0.000E+00  0.000E+00  1.06158E+03  1.036E+00  6.145E+00  1.844E-02  1.518E+00
   1    5   10     4     1    1.0000E+01  9.0919E-02   9.9091E+00  0.000E+00  0.000E+00  0.000E+00  1.07836E+03  6.368E-01  1.000E+01  2.500E-02  1.212E+00
   1    5    9     4     2    9.9091E+00  1.8158E-01   9.7275E+00  0.000E+00  0.000E+00  0.000E+00  1.07154E+03  6.315E-01  1.000E+01  5.000E-02  1.211E+00
   1    6    8     4     3    9.7275E+00  1.2689E-01   9.6006E+00  0.000E+00  0.000E+00  0.000E+00  1.06381E+03  6.256E-01  1.000E+01  3.500E-02  1.209E+00
   1    6    8     5     1    1.0432E+01  2.2686E-01   1.0205E+01  0.000E+00  0.000E+00  0.000E+00  1.05868E+03  6.790E-01  1.542E+01  6.166E-02  1.226E+00
   1    7    7     5     2    1.0205E+01  2.7894E-01   9.9265E+00  0.000E+00  0.000E+00  0.000E+00  1.05417E+03  6.732E-01  1.519E+01  7.594E-02  1.224E+00
   1    8    7     5     3    9.9265E+00  1.9221E-01   9.7343E+00  0.000E+00  0.000E+00  0.000E+00  1.04992E+03  6.676E-01  1.497E+01  5.241E-02  1.223E+00
   1    8    6     5     4    9.7343E+00  1.3577E-01   9.5985E+00  0.000E+00  0.000E+00  0.000E+00  1.04691E+03  6.637E-01  1.482E+01  3.706E-02  1.221E+00
   1    9    6     6     1    2.6193E+01  2.5512E-01   2.5938E+01  0.000E+00  0.000E+00  0.000E+00  1.04398E+03  1.252E+00  1.200E+01  6.000E-02  1.417E+00
   1   10    7     6     2    2.5938E+01  2.5468E-01   2.5683E+01  0.000E+00  0.000E+00  0.000E+00  1.03943E+03  1.245E+00  1.200E+01  6.000E-02  1.415E+00
   1   11    7     6     3    2.5683E+01  2.5424E-01   2.5429E+01  0.000E+00  0.000E+00  0.000E+00  1.03487E+03  1.237E+00  1.200E+01  6.000E-02  1.412E+00
   1   12    7     6     4    2.5429E+01  2.5379E-01   2.5175E+01  0.000E+00  0.000E+00  0.000E+00  1.03032E+03  1.230E+00  1.200E+01  6.000E-02  1.410E+00
   1   13    7     6     5    2.5175E+01  3.4554E-03   2.5171E+01  0.000E+00  0.000E+00  0.000E+00  1.02714E+03  1.226E+00  1.200E+01  2.400E-02  4.799E-02
   1   14    9     7     1    1.5000E+02  1.3364E+00   1.4866E+02  0.000E+00  0.000E+00  0.000E+00  1.03987E+03  2.288E+00  5.529E+01  5.593E-01  7.965E-01
   1   13    8     7     2    1.4866E+02  1.8503E+00   1.4681E+02  0.000E+00  0.000E+00  0.000E+00  1.03478E+03  2.279E+00  5.526E+01  6.148E-01  1.003E+00
   1   13    7     7     3    1.4681E+02  1.5069E+00   1.4531E+02  0.000E+00  0.000E+00  0.000E+00  1.02969E+03  2.270E+00  5.522E+01  5.584E-01  8.995E-01
   1   13    6     8     1    1.7048E+02  9.6519E-01   1.6951E+02  0.000E+00  0.000E+00  0.000E+00  1.02483E+03  2.952E+00  4.281E+01  4.362E-01  7.376E-01
   1   13    5     8     2    1.6951E+02  2.2315E-01   1.6929E+02  0.000E+00  0.000E+00  0.000E+00  1.01857E+03  2.948E+00  4.275E+01  4.356E-01  1.707E-01
   1   13    4     8     3    1.6929E+02 -2.2592E+00   1.7155E+02  0.000E+00  0.000E+00  0.000E+00  1.01233E+03  2.955E+00  4.285E+01  4.366E+00 -1.725E-01
   1   13    3     8     4    1.7155E+02 -3.5808E+00   1.7513E+02  0.000E+00  0.000E+00  0.000E+00  1.00610E+03  2.974E+00  4.312E+01  4.394E+00 -2.716E-01
   1   13    2     8     5    1.7513E+02 -2.5691E+00   1.7770E+02  0.000E+00  0.000E+00  0.000E+00  9.99868E+02  2.993E+00  4.341E+01  4.423E+00 -1.936E-01
   1   13    1     8     6    1.7770E+02 -1.9876E+00   1.7969E+02  0.000E+00  0.000E+00  0.000E+00  9.94883E+02  3.008E+00  4.361E+01  2.667E+00 -2.484E-01





UNSATURATED ZONE PACKAGE VOLUMETRIC BUDGET FOR  TIME STEP    30 STRESS PERIOD   24
  ------------------------------------------------------------------------------



     CUMULATIVE VOLUMES      L**3       RATES FOR THIS TIME STEP      L**3/T
     ------------------                 ------------------------

           IN:                                      IN:
           ---                                      ---
        INFILTRATION =   921434454.5154          INFILTRATION =           0.8475

          OUT:                                     OUT:
          ----                                     ----
              UZF ET =   845239583.1833                UZF ET =           0.7500
        UZF RECHARGE =    75862204.6604          UZF RECHARGE =           0.0003

            IN - OUT =      332666.6717              IN - OUT =       9.7168E-02

          STORAGE:                                 STORAGE:
          --------                                 --------
      STORAGE CHANGE =      332667.8534        STORAGE CHANGE =       9.7168E-02

 PERCENT DISCREPANCY IS DIFFERENCE BETWEEN IN-OUT MINUS CHANGE IN STORAGE
 DIVIDED BY THE AVERAGE OF IN AND OUT TIMES 100

 PERCENT DISCREPANCY =           0.00     PERCENT DISCREPANCY =           0.00






1
  VOLUMETRIC BUDGET FOR AGRICULTURAL FIELDS AT  END OF TIME STEP   30, STRESS PERIOD  24
  ------------------------------------------------------------------------------

     CUMULATIVE VOLUMES      L**3       RATES FOR THIS TIME STEP      L**3/T
     ------------------                 ------------------------

           IN:                                      IN:
           ---                                      ---
               AG WELLS  =   870094720.0000                 AG WELLS  =           0.0000
      DIVERSION SEGMENTS =           0.0000        DIVERSION SEGMENTS =           0.0000
       IRRIGATION PONDS  =           0.0000         IRRIGATION PONDS  =           0.0000
           GW IRRIGATION =           0.0000             GW IRRIGATION =           0.0000
           SW IRRIGATION =           0.0000             SW IRRIGATION =           0.0000
        SYSTEM LOSSES GW =           0.0000          SYSTEM LOSSES GW =           0.0000
        SYSTEM LOSSES SW =           0.0000          SYSTEM LOSSES SW =           0.0000

                TOTAL IN =   870094720.0000                  TOTAL IN =           0.0000

          OUT:                                     OUT:
          ----                                     ----
               AG WELLS  =           0.0000                 AG WELLS  =           0.0000
      DIVERSION SEGMENTS =           0.0000        DIVERSION SEGMENTS =           0.0000
       IRRIGATION PONDS  =           0.0000         IRRIGATION PONDS  =           0.0000
           GW IRRIGATION =   870094720.0000             GW IRRIGATION =           0.0000
           SW IRRIGATION =           0.0000             SW IRRIGATION =           0.0000
        SYSTEM LOSSES GW =           0.0000          SYSTEM LOSSES GW =           0.0000
        SYSTEM LOSSES SW =           0.0000          SYSTEM LOSSES SW =           0.0000

               TOTAL OUT =   870094720.0000                 TOTAL OUT =           0.0000

                IN - OUT =           0.0000                  IN - OUT =           0.0000

     PERCENT DISCREPANCY =           0.00         PERCENT DISCREPANCY =           0.00



1
  VOLUMETRIC BUDGET FOR ENTIRE MODEL AT END OF TIME STEP   30, STRESS PERIOD  24
  ------------------------------------------------------------------------------

     CUMULATIVE VOLUMES      L**3       RATES FOR THIS TIME STEP      L**3/T
     ------------------                 ------------------------

           IN:                                      IN:
           ---                                      ---
             STORAGE     =  1122076544.0000               STORAGE     =           9.4185
       CONSTANT HEAD     =           0.0000         CONSTANT HEAD     =           0.0000
     HEAD DEP BOUNDS     =    17292294.0000       HEAD DEP BOUNDS     =           0.2858
      STREAM LEAKAGE     =   754187904.0000        STREAM LEAKAGE     =          11.7110
        UZF RECHARGE     =    75862232.0000          UZF RECHARGE     =       3.3178E-04
               GW ET     =           0.0000                 GW ET     =           0.0000
     SURFACE LEAKAGE     =           0.0000       SURFACE LEAKAGE     =           0.0000
           AG WELLS      =           0.0000             AG WELLS      =           0.0000

                TOTAL IN =  1969419008.0000                  TOTAL IN =          21.4156

          OUT:                                     OUT:
          ----                                     ----
             STORAGE     =   435860576.0000               STORAGE     =          10.7290
       CONSTANT HEAD     =           0.0000         CONSTANT HEAD     =           0.0000
     HEAD DEP BOUNDS     =    17823878.0000       HEAD DEP BOUNDS     =           0.2899
      STREAM LEAKAGE     =   628035776.0000        STREAM LEAKAGE     =          10.3967
        UZF RECHARGE     =           0.0000          UZF RECHARGE     =           0.0000
               GW ET     =    17607784.0000                 GW ET     =           0.0000
     SURFACE LEAKAGE     =           0.0000       SURFACE LEAKAGE     =           0.0000
           AG WELLS      =   870094720.0000             AG WELLS      =           0.0000

               TOTAL OUT =  1969422720.0000                 TOTAL OUT =          21.4156

                IN - OUT =       -3712.0000                  IN - OUT =       7.6294E-06

     PERCENT DISCREPANCY =          -0.00         PERCENT DISCREPANCY =           0.00






         TIME SUMMARY AT END OF TIME STEP   30 IN STRESS PERIOD   24
                    SECONDS     MINUTES      HOURS       DAYS        YEARS
                    -----------------------------------------------------------
   TIME STEP LENGTH  87667.      1461.1      24.352      1.0147     2.77799E-03
 STRESS PERIOD TIME 2.63000E+06  43833.      730.56      30.440     8.33397E-02
         TOTAL TIME 6.05767E+07 1.00961E+06  16827.      701.12      1.9196    
1
1
                            STRESS PERIOD NO.   25, LENGTH =   2630000.    
                            -----------------------------------------------

                              NUMBER OF TIME STEPS =    30

                               MULTIPLIER FOR DELT =     1.000

                            INITIAL TIME STEP SIZE =   87666.66    

 REUSING NON-PARAMETER GHB CELLS FROM LAST STRESS PERIOD

      2 GHB CELLS

 REUSING STREAM SEGMENT DATA FROM LAST STRESS PERIOD



            AREAL INFILTRATION RATE
 READING ON UNIT   19 WITH FORMAT: (FREE)              

            1           2           3           4           5           6           7           8           9          10
 ........................................................................................................................
   1   1.0000E-10  2.0000E-10   0.000       0.000       0.000       0.000       0.000       0.000       0.000       0.000    
   2   2.0000E-10  1.0000E-10  2.0000E-10   0.000       0.000      8.0000E-10  8.0000E-10  5.0000E-10   0.000       0.000    
   3    0.000      5.0000E-10  1.0000E-10  1.0000E-10  8.0000E-10  8.0000E-10  5.0000E-10  5.0000E-10   0.000       0.000    
   4   8.0000E-10  5.0000E-10  1.0000E-10  1.0000E-10  1.0000E-10  1.0000E-10  1.0000E-10  1.0000E-10  2.0000E-10   0.000    
   5   8.0000E-10  5.0000E-10  1.0000E-10  1.0000E-10  1.0000E-10  1.0000E-10  1.0000E-10  1.0000E-10  1.0000E-10  1.0000E-10
   6   8.0000E-10  5.0000E-10  5.0000E-10  2.0000E-10  2.0000E-10  1.0000E-10  1.0000E-10  1.0000E-10  1.0000E-10  5.0000E-10
   7   8.0000E-10  5.0000E-10  5.0000E-10  2.0000E-10  2.0000E-10  1.0000E-10  1.0000E-10  2.0000E-10  2.0000E-10   0.000    
   8    0.000      5.0000E-10  5.0000E-10  2.0000E-10  2.0000E-10  1.0000E-10  1.0000E-10  2.0000E-10  5.0000E-10   0.000    
   9    0.000      5.0000E-10  5.0000E-10  2.0000E-10  2.0000E-10  1.0000E-10  1.0000E-10  2.0000E-10  5.0000E-10   0.000    
  10    0.000      5.0000E-10  5.0000E-10  2.0000E-10  2.0000E-10  1.0000E-10  1.0000E-10  2.0000E-10  5.0000E-10  8.0000E-10
  11    0.000      1.0000E-10  1.0000E-10  1.0000E-10  1.0000E-10  1.0000E-10  1.0000E-10  2.0000E-10  5.0000E-10   0.000    
  12   1.0000E-10  1.0000E-10  1.0000E-10  1.0000E-10  1.0000E-10  1.0000E-10  1.0000E-10  1.0000E-10  2.0000E-10   0.000    
  13   1.0000E-10  1.0000E-10  2.0000E-10  2.0000E-10  2.0000E-10  2.0000E-10  2.0000E-10  1.0000E-10  1.0000E-10   0.000    
  14    0.000      2.0000E-10  5.0000E-10  5.0000E-10  5.0000E-10  5.0000E-10  5.0000E-10  2.0000E-10  1.0000E-10   0.000    
  15    0.000       0.000      8.0000E-10  8.0000E-10  8.0000E-10  8.0000E-10   0.000       0.000       0.000       0.000    

                  ET RATE =  5.000000E-10

 USING ET EXTINCTION DEPTH FROM PREVIOUS STRESS PERIOD. CURRENT PERIOD IS:      25

 USING EXTINCTION WATER CONTENT FROM PREVIOUS STRESS PERIOD. CURRENT PERIOD IS:      25

 USING AIR ENTRY PRESSURE FROM PREVIOUS STRESS PERIOD. CURRENT PERIOD IS:      25

 USING ROOT PRESSURE HEAD FROM PREVIOUS STRESS PERIOD. CURRENT PERIOD IS:      25

 USING ROOT ACTIVITY FROM PREVIOUS STRESS PERIOD. CURRENT PERIOD IS:      25

 PROCESSING AG STRESS PERIOD DATA

 READING AG STRESS PERIOD DATA

 READING IRRIGATION WELL

 NO IRRPOND OR REUSING IRRPOND DATA FROM LAST STRESS PERIOD

 END PROCESSING AG STRESS PERIOD DATA OPTIONS
 
 SOLVING FOR HEAD 
                                                   Max.-Head-Change                         Max.-Flux-Residual
  Residual-Control   Outer-Iter.   Inner-Iter.     Column Row Layer    Maximum-Head-Change  Column Row Layer    Maximum-Flux-Residual          L2-NORM 
          0                 1           2             4    7     1       0.2685832248E-01       4    7    1         0.1411644264E+01      0.3301080094E+01
          0                 2           2             4    7     1      -0.2611182854E-02       4    7    1        -0.1410888654E+00      0.3299793895E+00
          0                 3           2             4    7     1       0.1776779259E-03       4    7    1         0.9868769831E-02      0.2308601866E-01
          0                 4           1             4    7     1      -0.7061114091E-05       4    7    1        -0.4031266658E-03      0.9433588235E-03

    ------------------------------------------------
       NWT REQUIRED            4 OUTER ITERATIONS 
       AND A TOTAL OF          7 INNER ITERATIONS.
    ------------------------------------------------

 NO OUTPUT CONTROL FOR STRESS PERIOD   25   TIME STEP    1
 
 SOLVING FOR HEAD 
                                                   Max.-Head-Change                         Max.-Flux-Residual
  Residual-Control   Outer-Iter.   Inner-Iter.     Column Row Layer    Maximum-Head-Change  Column Row Layer    Maximum-Flux-Residual          L2-NORM 
          0                 1           2             4    7     1       0.2655386463E-01       4    7    1         0.1395510478E+01      0.3271159422E+01
          0                 2           2             4    7     1      -0.2581582968E-02       4    7    1        -0.1394763289E+00      0.3269876648E+00
          0                 3           2             4    7     1       0.1756637951E-03       4    7    1         0.9755976864E-02      0.2287663687E-01
          0                 4           1             4    7     1      -0.6981070015E-05       4    7    1        -0.3985191779E-03      0.9348332672E-03

    ------------------------------------------------
       NWT REQUIRED            4 OUTER ITERATIONS 
       AND A TOTAL OF          7 INNER ITERATIONS.
    ------------------------------------------------

 NO OUTPUT CONTROL FOR STRESS PERIOD   25   TIME STEP    2
 
 SOLVING FOR HEAD 
                                                   Max.-Head-Change                         Max.-Flux-Residual
  Residual-Control   Outer-Iter.   Inner-Iter.     Column Row Layer    Maximum-Head-Change  Column Row Layer    Maximum-Flux-Residual          L2-NORM 
          0                 1           2             4    7     1       0.2625532747E-01       4    7    1         0.1379695484E+01      0.3241073719E+01
          0                 2           2             4    7     1      -0.2552558711E-02       4    7    1        -0.1378956555E+00      0.3239807640E+00
          0                 3           2             4    7     1       0.1736888338E-03       4    7    1         0.9645412691E-02      0.2266634378E-01
          0                 4           1             4    7     1      -0.6902582234E-05       4    7    1        -0.3940027163E-03      0.9262237418E-03

    ------------------------------------------------
       NWT REQUIRED            4 OUTER ITERATIONS 
       AND A TOTAL OF          7 INNER ITERATIONS.
    ------------------------------------------------

 NO OUTPUT CONTROL FOR STRESS PERIOD   25   TIME STEP    3
 
 SOLVING FOR HEAD 
                                                   Max.-Head-Change                         Max.-Flux-Residual
  Residual-Control   Outer-Iter.   Inner-Iter.     Column Row Layer    Maximum-Head-Change  Column Row Layer    Maximum-Flux-Residual          L2-NORM 
          0                 1           2             4    7     1       0.2596235289E-01       4    7    1         0.1364180147E+01      0.3211433525E+01
          0                 2           2             4    7     1      -0.2524075268E-02       4    7    1        -0.1363449330E+00      0.3210183762E+00
          0                 3           2             4    7     1       0.1717506726E-03       4    7    1         0.9536943503E-02      0.2245908263E-01
          0                 4           1             4    7     1      -0.6825557264E-05       4    7    1        -0.3895718605E-03      0.9177269342E-03

    ------------------------------------------------
       NWT REQUIRED            4 OUTER ITERATIONS 
       AND A TOTAL OF          7 INNER ITERATIONS.
    ------------------------------------------------

 NO OUTPUT CONTROL FOR STRESS PERIOD   25   TIME STEP    4
 
 SOLVING FOR HEAD 
                                                   Max.-Head-Change                         Max.-Flux-Residual
  Residual-Control   Outer-Iter.   Inner-Iter.     Column Row Layer    Maximum-Head-Change  Column Row Layer    Maximum-Flux-Residual          L2-NORM 
          0                 1           2             4    7     1       0.2567474069E-01       4    7    1         0.1348953220E+01      0.3182241498E+01
          0                 2           2             4    7     1      -0.2496113173E-02       4    7    1        -0.1348230369E+00      0.3181007388E+00
          0                 3           2             4    7     1       0.1698479869E-03       4    7    1         0.9430490696E-02      0.2225503991E-01
          0                 4           1             4    7     1      -0.6749941686E-05       4    7    1        -0.3852233526E-03      0.9094341272E-03

    ------------------------------------------------
       NWT REQUIRED            4 OUTER ITERATIONS 
       AND A TOTAL OF          7 INNER ITERATIONS.
    ------------------------------------------------

 NO OUTPUT CONTROL FOR STRESS PERIOD   25   TIME STEP    5
 
 SOLVING FOR HEAD 
                                                   Max.-Head-Change                         Max.-Flux-Residual
  Residual-Control   Outer-Iter.   Inner-Iter.     Column Row Layer    Maximum-Head-Change  Column Row Layer    Maximum-Flux-Residual          L2-NORM 
          0                 1           2             4    7     1       0.2539256908E-01       4    7    1         0.1334018960E+01      0.3153475195E+01
          0                 2           2             4    7     1      -0.2468680031E-02       4    7    1        -0.1333303929E+00      0.3152256681E+00
          0                 3           2             4    7     1       0.1679812942E-03       4    7    1         0.9326084010E-02      0.2205392853E-01
          0                 4           1             4    7     1      -0.6675757145E-05       4    7    1        -0.3809584409E-03      0.9012131402E-03

    ------------------------------------------------
       NWT REQUIRED            4 OUTER ITERATIONS 
       AND A TOTAL OF          7 INNER ITERATIONS.
    ------------------------------------------------

 NO OUTPUT CONTROL FOR STRESS PERIOD   25   TIME STEP    6
 
 SOLVING FOR HEAD 
                                                   Max.-Head-Change                         Max.-Flux-Residual
  Residual-Control   Outer-Iter.   Inner-Iter.     Column Row Layer    Maximum-Head-Change  Column Row Layer    Maximum-Flux-Residual          L2-NORM 
          0                 1           2             4    7     1       0.2511538106E-01       4    7    1         0.1319352146E+01      0.3125142162E+01
          0                 2           2             4    7     1      -0.2441731408E-02       4    7    1        -0.1318644800E+00      0.3123939890E+00
          0                 3           2             4    7     1       0.1661475708E-03       4    7    1         0.9223547101E-02      0.2185598309E-01
          0                 4           1             4    7     1      -0.6602882525E-05       4    7    1        -0.3767699009E-03      0.8931233133E-03

    ------------------------------------------------
       NWT REQUIRED            4 OUTER ITERATIONS 
       AND A TOTAL OF          7 INNER ITERATIONS.
    ------------------------------------------------

 NO OUTPUT CONTROL FOR STRESS PERIOD   25   TIME STEP    7
 
 SOLVING FOR HEAD 
                                                   Max.-Head-Change                         Max.-Flux-Residual
  Residual-Control   Outer-Iter.   Inner-Iter.     Column Row Layer    Maximum-Head-Change  Column Row Layer    Maximum-Flux-Residual          L2-NORM 
          0                 1           2             4    7     1       0.2484314339E-01       4    7    1         0.1304951042E+01      0.3097224336E+01
          0                 2           2             4    7     1      -0.2415264072E-02       4    7    1        -0.1304251246E+00      0.3096035089E+00
          0                 3           2             4    7     1       0.1643465968E-03       4    7    1         0.9122867844E-02      0.2166062182E-01
          0                 4           1             4    7     1      -0.6531309423E-05       4    7    1        -0.3726572431E-03      0.8852699981E-03

    ------------------------------------------------
       NWT REQUIRED            4 OUTER ITERATIONS 
       AND A TOTAL OF          7 INNER ITERATIONS.
    ------------------------------------------------

 NO OUTPUT CONTROL FOR STRESS PERIOD   25   TIME STEP    8
 
 SOLVING FOR HEAD 
                                                   Max.-Head-Change                         Max.-Flux-Residual
  Residual-Control   Outer-Iter.   Inner-Iter.     Column Row Layer    Maximum-Head-Change  Column Row Layer    Maximum-Flux-Residual          L2-NORM 
          0                 1           2             4    7     1       0.2457568823E-01       4    7    1         0.1290806603E+01      0.3069709863E+01
          0                 2           2             4    7     1      -0.2389261708E-02       4    7    1        -0.1290114229E+00      0.3068534586E+00
          0                 3           2             4    7     1       0.1625772622E-03       4    7    1         0.9023983018E-02      0.2146828502E-01
          0                 4           1             4    7     1      -0.6460993744E-05       4    7    1        -0.3686178866E-03      0.8772250055E-03

    ------------------------------------------------
       NWT REQUIRED            4 OUTER ITERATIONS 
       AND A TOTAL OF          7 INNER ITERATIONS.
    ------------------------------------------------

 NO OUTPUT CONTROL FOR STRESS PERIOD   25   TIME STEP    9
 
 SOLVING FOR HEAD 
                                                   Max.-Head-Change                         Max.-Flux-Residual
  Residual-Control   Outer-Iter.   Inner-Iter.     Column Row Layer    Maximum-Head-Change  Column Row Layer    Maximum-Flux-Residual          L2-NORM 
          0                 1           2             4    7     1       0.2431285902E-01       4    7    1         0.1276910130E+01      0.3042584683E+01
          0                 2           2             4    7     1      -0.2363709092E-02       4    7    1        -0.1276225052E+00      0.3041422951E+00
          0                 3           2             4    7     1       0.1608385312E-03       4    7    1         0.8926831776E-02      0.2127861580E-01
          0                 4           1             4    7     1      -0.6391894388E-05       4    7    1        -0.3646493665E-03      0.8695015065E-03

    ------------------------------------------------
       NWT REQUIRED            4 OUTER ITERATIONS 
       AND A TOTAL OF          7 INNER ITERATIONS.
    ------------------------------------------------

 NO OUTPUT CONTROL FOR STRESS PERIOD   25   TIME STEP   10
 
 SOLVING FOR HEAD 
                                                   Max.-Head-Change                         Max.-Flux-Residual
  Residual-Control   Outer-Iter.   Inner-Iter.     Column Row Layer    Maximum-Head-Change  Column Row Layer    Maximum-Flux-Residual          L2-NORM 
          0                 1           2             4    7     1       0.2405451008E-01       4    7    1         0.1263253502E+01      0.3015858163E+01
          0                 2           2             4    7     1      -0.2338592060E-02       4    7    1        -0.1262575599E+00      0.3014711560E+00
          0                 3           2             4    7     1       0.1591294397E-03       4    7    1         0.8831357370E-02      0.2109191503E-01
          0                 4           1             4    7     1      -0.6323972673E-05       4    7    1        -0.3607493222E-03      0.8618999715E-03

    ------------------------------------------------
       NWT REQUIRED            4 OUTER ITERATIONS 
       AND A TOTAL OF          7 INNER ITERATIONS.
    ------------------------------------------------

 NO OUTPUT CONTROL FOR STRESS PERIOD   25   TIME STEP   11
 
 SOLVING FOR HEAD 
                                                   Max.-Head-Change                         Max.-Flux-Residual
  Residual-Control   Outer-Iter.   Inner-Iter.     Column Row Layer    Maximum-Head-Change  Column Row Layer    Maximum-Flux-Residual          L2-NORM 
          0                 1           2             4    7     1       0.2380063442E-01       4    7    1         0.1249836490E+01      0.2989509544E+01
          0                 2           2             4    7     1      -0.2313909934E-02       4    7    1        -0.1249165640E+00      0.2988374508E+00
          0                 3           2             4    7     1       0.1574499418E-03       4    7    1         0.8737558176E-02      0.2090754492E-01
          0                 4           1             4    7     1      -0.6257227792E-05       4    7    1        -0.3569177284E-03      0.8543471113E-03

    ------------------------------------------------
       NWT REQUIRED            4 OUTER ITERATIONS 
       AND A TOTAL OF          7 INNER ITERATIONS.
    ------------------------------------------------

 NO OUTPUT CONTROL FOR STRESS PERIOD   25   TIME STEP   12
 
 SOLVING FOR HEAD 
                                                   Max.-Head-Change                         Max.-Flux-Residual
  Residual-Control   Outer-Iter.   Inner-Iter.     Column Row Layer    Maximum-Head-Change  Column Row Layer    Maximum-Flux-Residual          L2-NORM 
          0                 1           2             4    7     1       0.2355082342E-01       4    7    1         0.1236636766E+01      0.2963529368E+01
          0                 2           2             4    7     1      -0.2289622984E-02       4    7    1        -0.1235972859E+00      0.2962407256E+00
          0                 3           2             4    7     1       0.1557973333E-03       4    7    1         0.8645278083E-02      0.2072591241E-01
          0                 4           1             4    7     1      -0.6191550720E-05       4    7    1        -0.3531481593E-03      0.8469475081E-03

    ------------------------------------------------
       NWT REQUIRED            4 OUTER ITERATIONS 
       AND A TOTAL OF          7 INNER ITERATIONS.
    ------------------------------------------------

 NO OUTPUT CONTROL FOR STRESS PERIOD   25   TIME STEP   13
 
 SOLVING FOR HEAD 
                                                   Max.-Head-Change                         Max.-Flux-Residual
  Residual-Control   Outer-Iter.   Inner-Iter.     Column Row Layer    Maximum-Head-Change  Column Row Layer    Maximum-Flux-Residual          L2-NORM 
          0                 1           2             4    7     1       0.2330523077E-01       4    7    1         0.1223662431E+01      0.2937921747E+01
          0                 2           2             4    7     1      -0.2265746155E-02       4    7    1        -0.1223005351E+00      0.2936812065E+00
          0                 3           2             4    7     1       0.1541726321E-03       4    7    1         0.8554573738E-02      0.2054687626E-01
          0                 4           1             4    7     1      -0.6126983247E-05       4    7    1        -0.3494429848E-03      0.8396283834E-03

    ------------------------------------------------
       NWT REQUIRED            4 OUTER ITERATIONS 
       AND A TOTAL OF          7 INNER ITERATIONS.
    ------------------------------------------------

 NO OUTPUT CONTROL FOR STRESS PERIOD   25   TIME STEP   14
 
 SOLVING FOR HEAD 
                                                   Max.-Head-Change                         Max.-Flux-Residual
  Residual-Control   Outer-Iter.   Inner-Iter.     Column Row Layer    Maximum-Head-Change  Column Row Layer    Maximum-Flux-Residual          L2-NORM 
          0                 1           2             4    7     1       0.2306359308E-01       4    7    1         0.1210899487E+01      0.2912667132E+01
          0                 2           2             4    7     1      -0.2242253836E-02       4    7    1        -0.1210249128E+00      0.2911569900E+00
          0                 3           2             4    7     1       0.1525740949E-03       4    7    1         0.8465347272E-02      0.2037029774E-01
          0                 4           1             4    7     1      -0.6063455262E-05       4    7    1        -0.3457981779E-03      0.8324124132E-03

    ------------------------------------------------
       NWT REQUIRED            4 OUTER ITERATIONS 
       AND A TOTAL OF          7 INNER ITERATIONS.
    ------------------------------------------------

 NO OUTPUT CONTROL FOR STRESS PERIOD   25   TIME STEP   15
 
 SOLVING FOR HEAD 
                                                   Max.-Head-Change                         Max.-Flux-Residual
  Residual-Control   Outer-Iter.   Inner-Iter.     Column Row Layer    Maximum-Head-Change  Column Row Layer    Maximum-Flux-Residual          L2-NORM 
          0                 1           2             4    7     1       0.2282593066E-01       4    7    1         0.1198348923E+01      0.2887764612E+01
          0                 2           2             4    7     1      -0.2219148003E-02       4    7    1        -0.1197705176E+00      0.2886679141E+00
          0                 3           2             4    7     1       0.1510018566E-03       4    7    1         0.8377605617E-02      0.2019615251E-01
          0                 4           1             4    7     1      -0.6000972865E-05       4    7    1        -0.3422140271E-03      0.8253241957E-03

    ------------------------------------------------
       NWT REQUIRED            4 OUTER ITERATIONS 
       AND A TOTAL OF          7 INNER ITERATIONS.
    ------------------------------------------------

 NO OUTPUT CONTROL FOR STRESS PERIOD   25   TIME STEP   16
 
 SOLVING FOR HEAD 
                                                   Max.-Head-Change                         Max.-Flux-Residual
  Residual-Control   Outer-Iter.   Inner-Iter.     Column Row Layer    Maximum-Head-Change  Column Row Layer    Maximum-Flux-Residual          L2-NORM 
          0                 1           2             4    7     1       0.2259199405E-01       4    7    1         0.1185997146E+01      0.2863208338E+01
          0                 2           2             4    7     1      -0.2196404403E-02       4    7    1        -0.1185359910E+00      0.2862135004E+00
          0                 3           2             4    7     1       0.1494542665E-03       4    7    1         0.8291253718E-02      0.2002449800E-01
          0                 4           1             4    7     1      -0.5939469859E-05       4    7    1        -0.3386866492E-03      0.8182954108E-03

    ------------------------------------------------
       NWT REQUIRED            4 OUTER ITERATIONS 
       AND A TOTAL OF          7 INNER ITERATIONS.
    ------------------------------------------------

 NO OUTPUT CONTROL FOR STRESS PERIOD   25   TIME STEP   17
 
 SOLVING FOR HEAD 
                                                   Max.-Head-Change                         Max.-Flux-Residual
  Residual-Control   Outer-Iter.   Inner-Iter.     Column Row Layer    Maximum-Head-Change  Column Row Layer    Maximum-Flux-Residual          L2-NORM 
          0                 1           2             4    7     1       0.2236168343E-01       4    7    1         0.1173838546E+01      0.2838989645E+01
          0                 2           2             4    7     1      -0.2174013331E-02       4    7    1        -0.1173207721E+00      0.2837928041E+00
          0                 3           2             4    7     1       0.1479306640E-03       4    7    1         0.8206252345E-02      0.1985515370E-01
          0                 4           1             4    7     1      -0.5878919764E-05       4    7    1        -0.3352144195E-03      0.8113826154E-03

    ------------------------------------------------
       NWT REQUIRED            4 OUTER ITERATIONS 
       AND A TOTAL OF          7 INNER ITERATIONS.
    ------------------------------------------------

 NO OUTPUT CONTROL FOR STRESS PERIOD   25   TIME STEP   18
 
 SOLVING FOR HEAD 
                                                   Max.-Head-Change                         Max.-Flux-Residual
  Residual-Control   Outer-Iter.   Inner-Iter.     Column Row Layer    Maximum-Head-Change  Column Row Layer    Maximum-Flux-Residual          L2-NORM 
          0                 1           2             4    7     1       0.2213503081E-01       4    7    1         0.1161875270E+01      0.2815093839E+01
          0                 2           2             4    7     1      -0.2151977898E-02       4    7    1        -0.1161250757E+00      0.2814043420E+00
          0                 3           2             4    7     1       0.1464312614E-03       4    7    1         0.8122616529E-02      0.1968807935E-01
          0                 4           1             4    7     1      -0.5819331905E-05       4    7    1        -0.3317979977E-03      0.8045447849E-03

    ------------------------------------------------
       NWT REQUIRED            4 OUTER ITERATIONS 
       AND A TOTAL OF          7 INNER ITERATIONS.
    ------------------------------------------------

 NO OUTPUT CONTROL FOR STRESS PERIOD   25   TIME STEP   19
 
 SOLVING FOR HEAD 
                                                   Max.-Head-Change                         Max.-Flux-Residual
  Residual-Control   Outer-Iter.   Inner-Iter.     Column Row Layer    Maximum-Head-Change  Column Row Layer    Maximum-Flux-Residual          L2-NORM 
          0                 1           2             4    7     1       0.2191193785E-01       4    7    1         0.1150101655E+01      0.2791530648E+01
          0                 2           2             4    7     1      -0.2130288543E-02       4    7    1        -0.1149483357E+00      0.2790491638E+00
          0                 3           2             4    7     1       0.1449554077E-03       4    7    1         0.8040306679E-02      0.1952330399E-01
          0                 4           1             4    7     1      -0.5760679574E-05       4    7    1        -0.3284357153E-03      0.7978263287E-03

    ------------------------------------------------
       NWT REQUIRED            4 OUTER ITERATIONS 
       AND A TOTAL OF          7 INNER ITERATIONS.
    ------------------------------------------------

 NO OUTPUT CONTROL FOR STRESS PERIOD   25   TIME STEP   20
 
 SOLVING FOR HEAD 
                                                   Max.-Head-Change                         Max.-Flux-Residual
  Residual-Control   Outer-Iter.   Inner-Iter.     Column Row Layer    Maximum-Head-Change  Column Row Layer    Maximum-Flux-Residual          L2-NORM 
          0                 1           2             4    7     1       0.2169217477E-01       4    7    1         0.1138505276E+01      0.2768285863E+01
          0                 2           2             4    7     1      -0.2108922928E-02       4    7    1        -0.1137893102E+00      0.2767257514E+00
          0                 3           2             4    7     1       0.1435015830E-03       4    7    1         0.7959235921E-02      0.1936077886E-01
          0                 4           1             4    7     1      -0.5702902787E-05       4    7    1        -0.3251240564E-03      0.7911657584E-03

    ------------------------------------------------
       NWT REQUIRED            4 OUTER ITERATIONS 
       AND A TOTAL OF          7 INNER ITERATIONS.
    ------------------------------------------------

 NO OUTPUT CONTROL FOR STRESS PERIOD   25   TIME STEP   21
 
 SOLVING FOR HEAD 
                                                   Max.-Head-Change                         Max.-Flux-Residual
  Residual-Control   Outer-Iter.   Inner-Iter.     Column Row Layer    Maximum-Head-Change  Column Row Layer    Maximum-Flux-Residual          L2-NORM 
          0                 1           2             4    7     1       0.2147592511E-01       4    7    1         0.1127096197E+01      0.2745353787E+01
          0                 2           2             4    7     1      -0.2087898895E-02       4    7    1        -0.1126490050E+00      0.2744336476E+00
          0                 3           2             4    7     1       0.1420710018E-03       4    7    1         0.7879474611E-02      0.1920045738E-01
          0                 4           1             4    7     1      -0.5646049785E-05       4    7    1        -0.3218659044E-03      0.7846346477E-03

    ------------------------------------------------
       NWT REQUIRED            4 OUTER ITERATIONS 
       AND A TOTAL OF          7 INNER ITERATIONS.
    ------------------------------------------------

 NO OUTPUT CONTROL FOR STRESS PERIOD   25   TIME STEP   22
 
 SOLVING FOR HEAD 
                                                   Max.-Head-Change                         Max.-Flux-Residual
  Residual-Control   Outer-Iter.   Inner-Iter.     Column Row Layer    Maximum-Head-Change  Column Row Layer    Maximum-Flux-Residual          L2-NORM 
          0                 1           2             4    7     1       0.2126269469E-01       4    7    1         0.1115847305E+01      0.2722727281E+01
          0                 2           2             4    7     1      -0.2067168398E-02       4    7    1        -0.1115247103E+00      0.2721720572E+00
          0                 3           2             4    7     1       0.1406603931E-03       4    7    1         0.7800833172E-02      0.1904222812E-01
          0                 4           1             4    7     1      -0.5589990012E-05       4    7    1        -0.3186534550E-03      0.7781605223E-03

    ------------------------------------------------
       NWT REQUIRED            4 OUTER ITERATIONS 
       AND A TOTAL OF          7 INNER ITERATIONS.
    ------------------------------------------------

 NO OUTPUT CONTROL FOR STRESS PERIOD   25   TIME STEP   23
 
 SOLVING FOR HEAD 
                                                   Max.-Head-Change                         Max.-Flux-Residual
  Residual-Control   Outer-Iter.   Inner-Iter.     Column Row Layer    Maximum-Head-Change  Column Row Layer    Maximum-Flux-Residual          L2-NORM 
          0                 1           2             4    7     1       0.2105281418E-01       4    7    1         0.1104776932E+01      0.2700403042E+01
          0                 2           2             4    7     1      -0.2046763588E-02       4    7    1        -0.1104182584E+00      0.2699406829E+00
          0                 3           2             4    7     1       0.1392719473E-03       4    7    1         0.7723439810E-02      0.1888613732E-01
          0                 4           1             4    7     1      -0.5534811886E-05       4    7    1        -0.3154920400E-03      0.7717677334E-03

    ------------------------------------------------
       NWT REQUIRED            4 OUTER ITERATIONS 
       AND A TOTAL OF          7 INNER ITERATIONS.
    ------------------------------------------------

 NO OUTPUT CONTROL FOR STRESS PERIOD   25   TIME STEP   24
 
 SOLVING FOR HEAD 
                                                   Max.-Head-Change                         Max.-Flux-Residual
  Residual-Control   Outer-Iter.   Inner-Iter.     Column Row Layer    Maximum-Head-Change  Column Row Layer    Maximum-Flux-Residual          L2-NORM 
          0                 1           2             4    7     1       0.2084606164E-01       4    7    1         0.1093872921E+01      0.2678379702E+01
          0                 2           2             4    7     1      -0.2026663221E-02       4    7    1        -0.1093284340E+00      0.2677645557E+00
          0                 3           2             4    7     1       0.1379042170E-03       4    7    1         0.7647209501E-02      0.1873390282E-01
          0                 4           1             4    7     1      -0.5480457152E-05       4    7    1        -0.3123781321E-03      0.7655693691E-03

    ------------------------------------------------
       NWT REQUIRED            4 OUTER ITERATIONS 
       AND A TOTAL OF          7 INNER ITERATIONS.
    ------------------------------------------------

 NO OUTPUT CONTROL FOR STRESS PERIOD   25   TIME STEP   25
 
 SOLVING FOR HEAD 
                                                   Max.-Head-Change                         Max.-Flux-Residual
  Residual-Control   Outer-Iter.   Inner-Iter.     Column Row Layer    Maximum-Head-Change  Column Row Layer    Maximum-Flux-Residual          L2-NORM 
          0                 1           2             4    7     1       0.2064222513E-01       4    7    1         0.1083123744E+01      0.2656619928E+01
          0                 2           2             4    7     1      -0.2006845686E-02       4    7    1        -0.1082540851E+00      0.2655644156E+00
          0                 3           2             4    7     1       0.1365557317E-03       4    7    1         0.7572061656E-02      0.1857999624E-01
          0                 4           1             4    7     1      -0.5426866866E-05       4    7    1        -0.3093084283E-03      0.7592750659E-03

    ------------------------------------------------
       NWT REQUIRED            4 OUTER ITERATIONS 
       AND A TOTAL OF          7 INNER ITERATIONS.
    ------------------------------------------------

 NO OUTPUT CONTROL FOR STRESS PERIOD   25   TIME STEP   26
 
 SOLVING FOR HEAD 
                                                   Max.-Head-Change                         Max.-Flux-Residual
  Residual-Control   Outer-Iter.   Inner-Iter.     Column Row Layer    Maximum-Head-Change  Column Row Layer    Maximum-Flux-Residual          L2-NORM 
          0                 1           2             4    7     1       0.2044150741E-01       4    7    1         0.1072540447E+01      0.2635123055E+01
          0                 2           2             4    7     1      -0.1987331701E-02       4    7    1        -0.1071963156E+00      0.2634157486E+00
          0                 3           2             4    7     1       0.1352279015E-03       4    7    1         0.7498073533E-02      0.1842971811E-01
          0                 4           1             4    7     1      -0.5374096634E-05       4    7    1        -0.3062860615E-03      0.7531425866E-03

    ------------------------------------------------
       NWT REQUIRED            4 OUTER ITERATIONS 
       AND A TOTAL OF          7 INNER ITERATIONS.
    ------------------------------------------------

 NO OUTPUT CONTROL FOR STRESS PERIOD   25   TIME STEP   27
 
 SOLVING FOR HEAD 
                                                   Max.-Head-Change                         Max.-Flux-Residual
  Residual-Control   Outer-Iter.   Inner-Iter.     Column Row Layer    Maximum-Head-Change  Column Row Layer    Maximum-Flux-Residual          L2-NORM 
          0                 1           2             4    7     1       0.2024355980E-01       4    7    1         0.1062104182E+01      0.2613905525E+01
          0                 2           2             4    7     1      -0.1968087032E-02       4    7    1        -0.1061532418E+00      0.2612950216E+00
          0                 3           2             4    7     1       0.1339183975E-03       4    7    1         0.7425113313E-02      0.1828134970E-01
          0                 4           1             4    7     1      -0.5322055620E-05       4    7    1        -0.3033057374E-03      0.7470710395E-03

    ------------------------------------------------
       NWT REQUIRED            4 OUTER ITERATIONS 
       AND A TOTAL OF          7 INNER ITERATIONS.
    ------------------------------------------------

 NO OUTPUT CONTROL FOR STRESS PERIOD   25   TIME STEP   28
 
 SOLVING FOR HEAD 
                                                   Max.-Head-Change                         Max.-Flux-Residual
  Residual-Control   Outer-Iter.   Inner-Iter.     Column Row Layer    Maximum-Head-Change  Column Row Layer    Maximum-Flux-Residual          L2-NORM 
          0                 1           2             4    7     1       0.2004858673E-01       4    7    1         0.1051826197E+01      0.2592963793E+01
          0                 2           2             4    7     1      -0.1949131554E-02       4    7    1        -0.1051259877E+00      0.2592017841E+00
          0                 3           2             4    7     1       0.1326285711E-03       4    7    1         0.7353259646E-02      0.1813493714E-01
          0                 4           1             4    7     1      -0.5270796437E-05       4    7    1        -0.3003705920E-03      0.7410985863E-03

    ------------------------------------------------
       NWT REQUIRED            4 OUTER ITERATIONS 
       AND A TOTAL OF          7 INNER ITERATIONS.
    ------------------------------------------------

 NO OUTPUT CONTROL FOR STRESS PERIOD   25   TIME STEP   29
 
 SOLVING FOR HEAD 
                                                   Max.-Head-Change                         Max.-Flux-Residual
  Residual-Control   Outer-Iter.   Inner-Iter.     Column Row Layer    Maximum-Head-Change  Column Row Layer    Maximum-Flux-Residual          L2-NORM 
          0                 1           2             4    7     1       0.1985623581E-01       4    7    1         0.1041687781E+01      0.2576210282E+01
          0                 2           2             4    7     1      -0.1930431006E-02       4    7    1        -0.1041126833E+00      0.2575186441E+00
          0                 3           2             4    7     1       0.1313560916E-03       4    7    1         0.7282381730E-02      0.1801639834E-01
          0                 4           1             4    7     1      -0.5220226293E-05       4    7    1        -0.2974753079E-03      0.7362057083E-03

    ------------------------------------------------
       NWT REQUIRED            4 OUTER ITERATIONS 
       AND A TOTAL OF          7 INNER ITERATIONS.
    ------------------------------------------------

 NO OUTPUT CONTROL FOR STRESS PERIOD   25   TIME STEP   30



 STREAM LISTING     PERIOD     25   STEP       30

 LAYER ROW COL. STREAM  RCH.  FLOW INTO     FLOW TO   FLOW OUT OF   OVRLND.     DIRECT     STREAM       STREAM     STREAM     STREAM   STREAMBED  STREAMBED
                SEG.NO.  NO.  STRM. RCH.    AQUIFER    STRM. RCH.    RUNOFF     PRECIP       ET          HEAD       DEPTH      WIDTH   CONDCTNC.   GRADIENT

   1    1    1     1     1    1.8461E+01  2.1075E-01   1.8250E+01  0.000E+00  0.000E+00  0.000E+00  1.09412E+03  1.073E+00  1.150E+01  5.174E-02  1.358E+00
   1    2    2     1     2    1.8250E+01  3.2508E-01   1.7925E+01  0.000E+00  0.000E+00  0.000E+00  1.08913E+03  1.068E+00  1.141E+01  7.990E-02  1.356E+00
   1    3    3     1     3    1.7925E+01  2.7598E-01   1.7649E+01  0.000E+00  0.000E+00  0.000E+00  1.08348E+03  1.063E+00  1.132E+01  6.792E-02  1.354E+00
   1    3    4     1     4    1.7649E+01  2.5310E-01   1.7396E+01  0.000E+00  0.000E+00  0.000E+00  1.07847E+03  1.059E+00  1.124E+01  6.236E-02  1.353E+00
   1    4    5     2     1    1.5396E+01  3.0400E-01   1.5092E+01  0.000E+00  0.000E+00  0.000E+00  1.07283E+03  8.974E-01  1.200E+01  7.800E-02  1.299E+00
   1    5    6     2     2    1.5092E+01  2.3327E-01   1.4859E+01  0.000E+00  0.000E+00  0.000E+00  1.06740E+03  8.879E-01  1.200E+01  6.000E-02  1.296E+00
   1    6    6     2     3    1.4859E+01  2.3278E-01   1.4626E+01  0.000E+00  0.000E+00  0.000E+00  1.06267E+03  8.796E-01  1.200E+01  6.000E-02  1.293E+00
   1    7    6     2     4    1.4626E+01  2.3227E-01   1.4394E+01  0.000E+00  0.000E+00  0.000E+00  1.05795E+03  8.712E-01  1.200E+01  6.000E-02  1.290E+00
   1    8    6     2     5    1.4394E+01  2.3177E-01   1.4162E+01  0.000E+00  0.000E+00  0.000E+00  1.05322E+03  8.629E-01  1.200E+01  6.000E-02  1.288E+00
   1    3    5     3     1    2.0000E+00  2.8252E-01   1.7175E+00  0.000E+00  0.000E+00  0.000E+00  1.07555E+03  1.909E+00  9.636E+00  7.227E-02  1.955E+00
   1    3    6     3     2    1.7175E+00  2.4905E-01   1.4684E+00  0.000E+00  0.000E+00  0.000E+00  1.07264E+03  1.727E+00  8.909E+00  6.682E-02  1.864E+00
   1    3    7     3     3    1.4684E+00  1.9718E-01   1.2712E+00  0.000E+00  0.000E+00  0.000E+00  1.06987E+03  1.555E+00  8.218E+00  5.547E-02  1.777E+00
   1    4    8     3     4    1.2712E+00  2.2567E-01   1.0456E+00  0.000E+00  0.000E+00  0.000E+00  1.06682E+03  1.364E+00  7.455E+00  6.709E-02  1.682E+00
   1    5    8     3     5    1.0456E+00  1.5790E-01   8.8768E-01  0.000E+00  0.000E+00  0.000E+00  1.06362E+03  1.164E+00  6.655E+00  4.991E-02  1.582E+00
   1    6    8     3     6    8.8768E-01  5.5980E-02   8.3170E-01  0.000E+00  0.000E+00  0.000E+00  1.06158E+03  1.036E+00  6.145E+00  1.844E-02  1.518E+00
   1    5   10     4     1    1.0000E+01  9.0919E-02   9.9091E+00  0.000E+00  0.000E+00  0.000E+00  1.07836E+03  6.368E-01  1.000E+01  2.500E-02  1.212E+00
   1    5    9     4     2    9.9091E+00  1.8158E-01   9.7275E+00  0.000E+00  0.000E+00  0.000E+00  1.07154E+03  6.315E-01  1.000E+01  5.000E-02  1.211E+00
   1    6    8     4     3    9.7275E+00  1.2689E-01   9.6006E+00  0.000E+00  0.000E+00  0.000E+00  1.06381E+03  6.256E-01  1.000E+01  3.500E-02  1.209E+00
   1    6    8     5     1    1.0432E+01  2.2686E-01   1.0205E+01  0.000E+00  0.000E+00  0.000E+00  1.05868E+03  6.790E-01  1.542E+01  6.166E-02  1.226E+00
   1    7    7     5     2    1.0205E+01  2.7894E-01   9.9265E+00  0.000E+00  0.000E+00  0.000E+00  1.05417E+03  6.732E-01  1.519E+01  7.594E-02  1.224E+00
   1    8    7     5     3    9.9265E+00  1.9221E-01   9.7343E+00  0.000E+00  0.000E+00  0.000E+00  1.04992E+03  6.676E-01  1.497E+01  5.241E-02  1.223E+00
   1    8    6     5     4    9.7343E+00  1.3577E-01   9.5985E+00  0.000E+00  0.000E+00  0.000E+00  1.04691E+03  6.637E-01  1.482E+01  3.706E-02  1.221E+00
   1    9    6     6     1    2.3760E+01  2.5084E-01   2.3510E+01  0.000E+00  0.000E+00  0.000E+00  1.04391E+03  1.181E+00  1.200E+01  6.000E-02  1.394E+00
   1   10    7     6     2    2.3510E+01  2.5038E-01   2.3259E+01  0.000E+00  0.000E+00  0.000E+00  1.03935E+03  1.173E+00  1.200E+01  6.000E-02  1.391E+00
   1   11    7     6     3    2.3259E+01  2.4993E-01   2.3009E+01  0.000E+00  0.000E+00  0.000E+00  1.03480E+03  1.166E+00  1.200E+01  6.000E-02  1.389E+00
   1   12    7     6     4    2.3009E+01  2.4948E-01   2.2760E+01  0.000E+00  0.000E+00  0.000E+00  1.03025E+03  1.158E+00  1.200E+01  6.000E-02  1.386E+00
   1   13    7     6     5    2.2760E+01  2.4443E-03   2.2757E+01  0.000E+00  0.000E+00  0.000E+00  1.02706E+03  1.154E+00  1.200E+01  2.400E-02  3.395E-02
   1   14    9     7     1    1.5000E+02  1.3376E+00   1.4866E+02  0.000E+00  0.000E+00  0.000E+00  1.03987E+03  2.288E+00  5.529E+01  5.593E-01  7.972E-01
   1   13    8     7     2    1.4866E+02  1.8573E+00   1.4681E+02  0.000E+00  0.000E+00  0.000E+00  1.03478E+03  2.279E+00  5.526E+01  6.148E-01  1.007E+00
   1   13    7     7     3    1.4681E+02  1.5235E+00   1.4528E+02  0.000E+00  0.000E+00  0.000E+00  1.02969E+03  2.270E+00  5.522E+01  5.584E-01  9.094E-01
   1   13    6     8     1    1.6804E+02  9.7166E-01   1.6707E+02  0.000E+00  0.000E+00  0.000E+00  1.02481E+03  2.936E+00  4.257E+01  4.339E-01  7.465E-01
   1   13    5     8     2    1.6707E+02  2.3315E-01   1.6683E+02  0.000E+00  0.000E+00  0.000E+00  1.01856E+03  2.932E+00  4.252E+01  4.333E-01  1.794E-01
   1   13    4     8     3    1.6683E+02 -2.2385E+00   1.6907E+02  0.000E+00  0.000E+00  0.000E+00  1.01231E+03  2.939E+00  4.261E+01  4.342E+00 -1.718E-01
   1   13    3     8     4    1.6907E+02 -3.5812E+00   1.7265E+02  0.000E+00  0.000E+00  0.000E+00  1.00608E+03  2.958E+00  4.289E+01  4.370E+00 -2.731E-01
   1   13    2     8     5    1.7265E+02 -2.5921E+00   1.7525E+02  0.000E+00  0.000E+00  0.000E+00  9.99853E+02  2.978E+00  4.318E+01  4.400E+00 -1.964E-01
   1   13    1     8     6    1.7525E+02 -2.0007E+00   1.7725E+02  0.000E+00  0.000E+00  0.000E+00  9.94867E+02  2.992E+00  4.339E+01  2.653E+00 -2.514E-01





UNSATURATED ZONE PACKAGE VOLUMETRIC BUDGET FOR  TIME STEP    30 STRESS PERIOD   25
  ------------------------------------------------------------------------------



     CUMULATIVE VOLUMES      L**3       RATES FOR THIS TIME STEP      L**3/T
     ------------------                 ------------------------

           IN:                                      IN:
           ---                                      ---
        INFILTRATION =   923663379.3882          INFILTRATION =           0.8475

          OUT:                                     OUT:
          ----                                     ----
              UZF ET =   847212083.0727                UZF ET =           0.7500
        UZF RECHARGE =    75862959.3109          UZF RECHARGE =           0.0003

            IN - OUT =      588337.0046              IN - OUT =       9.7250E-02

          STORAGE:                                 STORAGE:
          --------                                 --------
      STORAGE CHANGE =      588338.2060        STORAGE CHANGE =       9.7250E-02

 PERCENT DISCREPANCY IS DIFFERENCE BETWEEN IN-OUT MINUS CHANGE IN STORAGE
 DIVIDED BY THE AVERAGE OF IN AND OUT TIMES 100

 PERCENT DISCREPANCY =           0.00     PERCENT DISCREPANCY =           0.00






1
  VOLUMETRIC BUDGET FOR AGRICULTURAL FIELDS AT  END OF TIME STEP   30, STRESS PERIOD  25
  ------------------------------------------------------------------------------

     CUMULATIVE VOLUMES      L**3       RATES FOR THIS TIME STEP      L**3/T
     ------------------                 ------------------------

           IN:                                      IN:
           ---                                      ---
               AG WELLS  =   870094720.0000                 AG WELLS  =           0.0000
      DIVERSION SEGMENTS =           0.0000        DIVERSION SEGMENTS =           0.0000
       IRRIGATION PONDS  =           0.0000         IRRIGATION PONDS  =           0.0000
           GW IRRIGATION =           0.0000             GW IRRIGATION =           0.0000
           SW IRRIGATION =           0.0000             SW IRRIGATION =           0.0000
        SYSTEM LOSSES GW =           0.0000          SYSTEM LOSSES GW =           0.0000
        SYSTEM LOSSES SW =           0.0000          SYSTEM LOSSES SW =           0.0000

                TOTAL IN =   870094720.0000                  TOTAL IN =           0.0000

          OUT:                                     OUT:
          ----                                     ----
               AG WELLS  =           0.0000                 AG WELLS  =           0.0000
      DIVERSION SEGMENTS =           0.0000        DIVERSION SEGMENTS =           0.0000
       IRRIGATION PONDS  =           0.0000         IRRIGATION PONDS  =           0.0000
           GW IRRIGATION =   870094720.0000             GW IRRIGATION =           0.0000
           SW IRRIGATION =           0.0000             SW IRRIGATION =           0.0000
        SYSTEM LOSSES GW =           0.0000          SYSTEM LOSSES GW =           0.0000
        SYSTEM LOSSES SW =           0.0000          SYSTEM LOSSES SW =           0.0000

               TOTAL OUT =   870094720.0000                 TOTAL OUT =           0.0000

                IN - OUT =           0.0000                  IN - OUT =           0.0000

     PERCENT DISCREPANCY =           0.00         PERCENT DISCREPANCY =           0.00



1
  VOLUMETRIC BUDGET FOR ENTIRE MODEL AT END OF TIME STEP   30, STRESS PERIOD  25
  ------------------------------------------------------------------------------

     CUMULATIVE VOLUMES      L**3       RATES FOR THIS TIME STEP      L**3/T
     ------------------                 ------------------------

           IN:                                      IN:
           ---                                      ---
             STORAGE     =  1144082944.0000               STORAGE     =           7.5912
       CONSTANT HEAD     =           0.0000         CONSTANT HEAD     =           0.0000
     HEAD DEP BOUNDS     =    18044060.0000       HEAD DEP BOUNDS     =           0.2859
      STREAM LEAKAGE     =   784920640.0000        STREAM LEAKAGE     =          11.6268
        UZF RECHARGE     =    75862976.0000          UZF RECHARGE     =       2.5004E-04
               GW ET     =           0.0000                 GW ET     =           0.0000
     SURFACE LEAKAGE     =           0.0000       SURFACE LEAKAGE     =           0.0000
           AG WELLS      =           0.0000             AG WELLS      =           0.0000

                TOTAL IN =  2022910720.0000                  TOTAL IN =          19.5041

          OUT:                                     OUT:
          ----                                     ----
             STORAGE     =   461298048.0000               STORAGE     =           8.8020
       CONSTANT HEAD     =           0.0000         CONSTANT HEAD     =           0.0000
     HEAD DEP BOUNDS     =    18585862.0000       HEAD DEP BOUNDS     =           0.2896
      STREAM LEAKAGE     =   655327680.0000        STREAM LEAKAGE     =          10.4125
        UZF RECHARGE     =           0.0000          UZF RECHARGE     =           0.0000
               GW ET     =    17607784.0000                 GW ET     =           0.0000
     SURFACE LEAKAGE     =           0.0000       SURFACE LEAKAGE     =           0.0000
           AG WELLS      =   870094720.0000             AG WELLS      =           0.0000

               TOTAL OUT =  2022914048.0000                 TOTAL OUT =          19.5041

                IN - OUT =       -3328.0000                  IN - OUT =       7.6294E-06

     PERCENT DISCREPANCY =          -0.00         PERCENT DISCREPANCY =           0.00






         TIME SUMMARY AT END OF TIME STEP   30 IN STRESS PERIOD   25
                    SECONDS     MINUTES      HOURS       DAYS        YEARS
                    -----------------------------------------------------------
   TIME STEP LENGTH  87667.      1461.1      24.352      1.0147     2.77799E-03
 STRESS PERIOD TIME 2.63000E+06  43833.      730.56      30.440     8.33397E-02
         TOTAL TIME 6.32067E+07 1.05345E+06  17557.      731.56      2.0029    
1
1
                            STRESS PERIOD NO.   26, LENGTH =   2630000.    
                            -----------------------------------------------

                              NUMBER OF TIME STEPS =    30

                               MULTIPLIER FOR DELT =     1.000

                            INITIAL TIME STEP SIZE =   87666.66    

 REUSING NON-PARAMETER GHB CELLS FROM LAST STRESS PERIOD

      2 GHB CELLS

 REUSING STREAM SEGMENT DATA FROM LAST STRESS PERIOD



            AREAL INFILTRATION RATE
 READING ON UNIT   19 WITH FORMAT: (FREE)              

            1           2           3           4           5           6           7           8           9          10
 ........................................................................................................................
   1   1.0000E-10  2.0000E-10   0.000       0.000       0.000       0.000       0.000       0.000       0.000       0.000    
   2   2.0000E-10  1.0000E-10  2.0000E-10   0.000       0.000      8.0000E-10  8.0000E-10  5.0000E-10   0.000       0.000    
   3    0.000      5.0000E-10  1.0000E-10  1.0000E-10  8.0000E-10  8.0000E-10  5.0000E-10  5.0000E-10   0.000       0.000    
   4   8.0000E-10  5.0000E-10  1.0000E-10  1.0000E-10  1.0000E-10  1.0000E-10  1.0000E-10  1.0000E-10  2.0000E-10   0.000    
   5   8.0000E-10  5.0000E-10  1.0000E-10  1.0000E-10  1.0000E-10  1.0000E-10  1.0000E-10  1.0000E-10  1.0000E-10  1.0000E-10
   6   8.0000E-10  5.0000E-10  5.0000E-10  2.0000E-10  2.0000E-10  1.0000E-10  1.0000E-10  1.0000E-10  1.0000E-10  5.0000E-10
   7   8.0000E-10  5.0000E-10  5.0000E-10  2.0000E-10  2.0000E-10  1.0000E-10  1.0000E-10  2.0000E-10  2.0000E-10   0.000    
   8    0.000      5.0000E-10  5.0000E-10  2.0000E-10  2.0000E-10  1.0000E-10  1.0000E-10  2.0000E-10  5.0000E-10   0.000    
   9    0.000      5.0000E-10  5.0000E-10  2.0000E-10  2.0000E-10  1.0000E-10  1.0000E-10  2.0000E-10  5.0000E-10   0.000    
  10    0.000      5.0000E-10  5.0000E-10  2.0000E-10  2.0000E-10  1.0000E-10  1.0000E-10  2.0000E-10  5.0000E-10  8.0000E-10
  11    0.000      1.0000E-10  1.0000E-10  1.0000E-10  1.0000E-10  1.0000E-10  1.0000E-10  2.0000E-10  5.0000E-10   0.000    
  12   1.0000E-10  1.0000E-10  1.0000E-10  1.0000E-10  1.0000E-10  1.0000E-10  1.0000E-10  1.0000E-10  2.0000E-10   0.000    
  13   1.0000E-10  1.0000E-10  2.0000E-10  2.0000E-10  2.0000E-10  2.0000E-10  2.0000E-10  1.0000E-10  1.0000E-10   0.000    
  14    0.000      2.0000E-10  5.0000E-10  5.0000E-10  5.0000E-10  5.0000E-10  5.0000E-10  2.0000E-10  1.0000E-10   0.000    
  15    0.000       0.000      8.0000E-10  8.0000E-10  8.0000E-10  8.0000E-10   0.000       0.000       0.000       0.000    

                  ET RATE =  5.000000E-10

 USING ET EXTINCTION DEPTH FROM PREVIOUS STRESS PERIOD. CURRENT PERIOD IS:      26

 USING EXTINCTION WATER CONTENT FROM PREVIOUS STRESS PERIOD. CURRENT PERIOD IS:      26

 USING AIR ENTRY PRESSURE FROM PREVIOUS STRESS PERIOD. CURRENT PERIOD IS:      26

 USING ROOT PRESSURE HEAD FROM PREVIOUS STRESS PERIOD. CURRENT PERIOD IS:      26

 USING ROOT ACTIVITY FROM PREVIOUS STRESS PERIOD. CURRENT PERIOD IS:      26

 PROCESSING AG STRESS PERIOD DATA

 READING AG STRESS PERIOD DATA

 READING IRRIGATION WELL

 NO IRRPOND OR REUSING IRRPOND DATA FROM LAST STRESS PERIOD

 END PROCESSING AG STRESS PERIOD DATA OPTIONS
 
 SOLVING FOR HEAD 
                                                   Max.-Head-Change                         Max.-Flux-Residual
  Residual-Control   Outer-Iter.   Inner-Iter.     Column Row Layer    Maximum-Head-Change  Column Row Layer    Maximum-Flux-Residual          L2-NORM 
          0                 1           2             4    7     1       0.1966672549E-01       4    7    1         0.1031699974E+01      0.2554147401E+01
          0                 2           2             4    7     1      -0.1912006628E-02       4    7    1        -0.1031144321E+00      0.2553177873E+00
          0                 3           2             4    7     1       0.1301024044E-03       4    7    1         0.7212556763E-02      0.1786284503E-01
          0                 4           1             4    7     1      -0.5170403558E-05       4    7    1        -0.2946230352E-03      0.7299474042E-03

    ------------------------------------------------
       NWT REQUIRED            4 OUTER ITERATIONS 
       AND A TOTAL OF          7 INNER ITERATIONS.
    ------------------------------------------------

 NO OUTPUT CONTROL FOR STRESS PERIOD   26   TIME STEP    1
 
 SOLVING FOR HEAD 
                                                   Max.-Head-Change                         Max.-Flux-Residual
  Residual-Control   Outer-Iter.   Inner-Iter.     Column Row Layer    Maximum-Head-Change  Column Row Layer    Maximum-Flux-Residual          L2-NORM 
          0                 1           2             4    7     1       0.1947985242E-01       4    7    1         0.1021852119E+01      0.2533949153E+01
          0                 2           2             4    7     1      -0.1893838647E-02       4    7    1        -0.1021301689E+00      0.2532993058E+00
          0                 3           2             4    7     1       0.1288661640E-03       4    7    1         0.7143710213E-02      0.1772164669E-01
          0                 4           1             4    7     1      -0.5121274121E-05       4    7    1        -0.2918107471E-03      0.7241712953E-03

    ------------------------------------------------
       NWT REQUIRED            4 OUTER ITERATIONS 
       AND A TOTAL OF          7 INNER ITERATIONS.
    ------------------------------------------------

 NO OUTPUT CONTROL FOR STRESS PERIOD   26   TIME STEP    2
 
 SOLVING FOR HEAD 
                                                   Max.-Head-Change                         Max.-Flux-Residual
  Residual-Control   Outer-Iter.   Inner-Iter.     Column Row Layer    Maximum-Head-Change  Column Row Layer    Maximum-Flux-Residual          L2-NORM 
          0                 1           2             4    7     1       0.1929555983E-01       4    7    1         0.1012141001E+01      0.2514007314E+01
          0                 2           2             4    7     1      -0.1875921546E-02       4    7    1        -0.1011595721E+00      0.2513063963E+00
          0                 3           2             4    7     1       0.1276469940E-03       4    7    1         0.7075819585E-02      0.1758227808E-01
          0                 4           1             4    7     1      -0.5072823016E-05       4    7    1        -0.2890374826E-03      0.7184874680E-03

    ------------------------------------------------
       NWT REQUIRED            4 OUTER ITERATIONS 
       AND A TOTAL OF          7 INNER ITERATIONS.
    ------------------------------------------------

 NO OUTPUT CONTROL FOR STRESS PERIOD   26   TIME STEP    3
 
 SOLVING FOR HEAD 
                                                   Max.-Head-Change                         Max.-Flux-Residual
  Residual-Control   Outer-Iter.   Inner-Iter.     Column Row Layer    Maximum-Head-Change  Column Row Layer    Maximum-Flux-Residual          L2-NORM 
          0                 1           2             4    7     1       0.1911392627E-01       4    7    1         0.1002571005E+01      0.2494335119E+01
          0                 2           2             4    7     1      -0.1858262960E-02       4    7    1        -0.1002030804E+00      0.2493403941E+00
          0                 3           2             4    7     1       0.1264454152E-03       4    7    1         0.7008915583E-02      0.1744478024E-01
          0                 4           1             4    7     1      -0.5025070620E-05       4    7    1        -0.2863045306E-03      0.7128895669E-03

    ------------------------------------------------
       NWT REQUIRED            4 OUTER ITERATIONS 
       AND A TOTAL OF          7 INNER ITERATIONS.
    ------------------------------------------------

 NO OUTPUT CONTROL FOR STRESS PERIOD   26   TIME STEP    4
 
 SOLVING FOR HEAD 
                                                   Max.-Head-Change                         Max.-Flux-Residual
  Residual-Control   Outer-Iter.   Inner-Iter.     Column Row Layer    Maximum-Head-Change  Column Row Layer    Maximum-Flux-Residual          L2-NORM 
          0                 1           2             4    7     1       0.1893462458E-01       4    7    1         0.9931242165E+00      0.2474910918E+01
          0                 2           2             4    7     1      -0.1840884393E-02       4    7    1        -0.9925890288E-01      0.2474649809E+00
          0                 3           2             4    7     1       0.1252628883E-03       4    7    1         0.6942872803E-02      0.1731362707E-01
          0                 4           1             4    7     1      -0.4978075418E-05       4    7    1        -0.2836067274E-03      0.7075148168E-03

    ------------------------------------------------
       NWT REQUIRED            4 OUTER ITERATIONS 
       AND A TOTAL OF          7 INNER ITERATIONS.
    ------------------------------------------------

 NO OUTPUT CONTROL FOR STRESS PERIOD   26   TIME STEP    5
 
 SOLVING FOR HEAD 
                                                   Max.-Head-Change                         Max.-Flux-Residual
  Residual-Control   Outer-Iter.   Inner-Iter.     Column Row Layer    Maximum-Head-Change  Column Row Layer    Maximum-Flux-Residual          L2-NORM 
          0                 1           2             4    7     1       0.1875770362E-01       4    7    1         0.9838101487E+00      0.2455683043E+01
          0                 2           2             4    7     1      -0.1823630692E-02       4    7    1        -0.9832799125E-01      0.2454775386E+00
          0                 3           2             4    7     1       0.1240888629E-03       4    7    1         0.6877758230E-02      0.1717463169E-01
          0                 4           1             4    7     1      -0.4931418807E-05       4    7    1        -0.2809468983E-03      0.7018501717E-03

    ------------------------------------------------
       NWT REQUIRED            4 OUTER ITERATIONS 
       AND A TOTAL OF          7 INNER ITERATIONS.
    ------------------------------------------------

 NO OUTPUT CONTROL FOR STRESS PERIOD   26   TIME STEP    6
 
 SOLVING FOR HEAD 
                                                   Max.-Head-Change                         Max.-Flux-Residual
  Residual-Control   Outer-Iter.   Inner-Iter.     Column Row Layer    Maximum-Head-Change  Column Row Layer    Maximum-Flux-Residual          L2-NORM 
          0                 1           2             4    7     1       0.1858327791E-01       4    7    1         0.9746251991E+00      0.2436684982E+01
          0                 2           2             4    7     1      -0.1806672872E-02       4    7    1        -0.9740998439E-01      0.2435787970E+00
          0                 3           2             4    7     1       0.1229349681E-03       4    7    1         0.6813546164E-02      0.1704180917E-01
          0                 4           1             4    7     1      -0.4885561757E-05       4    7    1        -0.2783239161E-03      0.6964219129E-03

    ------------------------------------------------
       NWT REQUIRED            4 OUTER ITERATIONS 
       AND A TOTAL OF          7 INNER ITERATIONS.
    ------------------------------------------------

 NO OUTPUT CONTROL FOR STRESS PERIOD   26   TIME STEP    7
 
 SOLVING FOR HEAD 
                                                   Max.-Head-Change                         Max.-Flux-Residual
  Residual-Control   Outer-Iter.   Inner-Iter.     Column Row Layer    Maximum-Head-Change  Column Row Layer    Maximum-Flux-Residual          L2-NORM 
          0                 1           2             4    7     1       0.1841111209E-01       4    7    1         0.9655594536E+00      0.2417932508E+01
          0                 2           2             4    7     1      -0.1789934760E-02       4    7    1        -0.9650389170E-01      0.2417046385E+00
          0                 3           2             4    7     1       0.1217960230E-03       4    7    1         0.6750167444E-02      0.1691070620E-01
          0                 4           1             4    7     1      -0.4840298765E-05       4    7    1        -0.2757349689E-03      0.6910761035E-03

    ------------------------------------------------
       NWT REQUIRED            4 OUTER ITERATIONS 
       AND A TOTAL OF          7 INNER ITERATIONS.
    ------------------------------------------------

 NO OUTPUT CONTROL FOR STRESS PERIOD   26   TIME STEP    8
 
 SOLVING FOR HEAD 
                                                   Max.-Head-Change                         Max.-Flux-Residual
  Residual-Control   Outer-Iter.   Inner-Iter.     Column Row Layer    Maximum-Head-Change  Column Row Layer    Maximum-Flux-Residual          L2-NORM 
          0                 1           2             4    7     1       0.1824116709E-01       4    7    1         0.9566108792E+00      0.2399417523E+01
          0                 2           2             4    7     1      -0.1773412560E-02       4    7    1        -0.9560950999E-01      0.2398541357E+00
          0                 3           2             4    7     1       0.1206717699E-03       4    7    1         0.6687607898E-02      0.1678126011E-01
          0                 4           1             4    7     1      -0.4795619355E-05       4    7    1        -0.2731794821E-03      0.6857677463E-03

    ------------------------------------------------
       NWT REQUIRED            4 OUTER ITERATIONS 
       AND A TOTAL OF          7 INNER ITERATIONS.
    ------------------------------------------------

 NO OUTPUT CONTROL FOR STRESS PERIOD   26   TIME STEP    9
 
 SOLVING FOR HEAD 
                                                   Max.-Head-Change                         Max.-Flux-Residual
  Residual-Control   Outer-Iter.   Inner-Iter.     Column Row Layer    Maximum-Head-Change  Column Row Layer    Maximum-Flux-Residual          L2-NORM 
          0                 1           2             4    7     1       0.1807340230E-01       4    7    1         0.9477774496E+00      0.2381138259E+01
          0                 2           2             4    7     1      -0.1757102323E-02       4    7    1        -0.9472663674E-01      0.2380272559E+00
          0                 3           2             4    7     1       0.1195619397E-03       4    7    1         0.6625853340E-02      0.1665349546E-01
          0                 4           1             4    7     1      -0.4751513741E-05       4    7    1        -0.2706568703E-03      0.6805643375E-03

    ------------------------------------------------
       NWT REQUIRED            4 OUTER ITERATIONS 
       AND A TOTAL OF          7 INNER ITERATIONS.
    ------------------------------------------------

 NO OUTPUT CONTROL FOR STRESS PERIOD   26   TIME STEP   10
 
 SOLVING FOR HEAD 
                                                   Max.-Head-Change                         Max.-Flux-Residual
  Residual-Control   Outer-Iter.   Inner-Iter.     Column Row Layer    Maximum-Head-Change  Column Row Layer    Maximum-Flux-Residual          L2-NORM 
          0                 1           2             4    7     1       0.1790804856E-01       4    7    1         0.9390717226E+00      0.2363088188E+01
          0                 2           2             4    7     1      -0.1741026493E-02       4    7    1        -0.9385652708E-01      0.2362232320E+00
          0                 3           1             4    7     1       0.1184680629E-03       4    7    1         0.6564991540E-02      0.1652731788E-01
          0                 4           1             4    7     1      -0.4708044898E-05       4    7    1        -0.2681707451E-03      0.6753994399E-03

    ------------------------------------------------
       NWT REQUIRED            4 OUTER ITERATIONS 
       AND A TOTAL OF          6 INNER ITERATIONS.
    ------------------------------------------------

 NO OUTPUT CONTROL FOR STRESS PERIOD   26   TIME STEP   11
 
 SOLVING FOR HEAD 
                                                   Max.-Head-Change                         Max.-Flux-Residual
  Residual-Control   Outer-Iter.   Inner-Iter.     Column Row Layer    Maximum-Head-Change  Column Row Layer    Maximum-Flux-Residual          L2-NORM 
          0                 1           2             4    7     1       0.1774465447E-01       4    7    1         0.9304690105E+00      0.2345263828E+01
          0                 2           2             4    7     1      -0.1725141181E-02       4    7    1        -0.9299671347E-01      0.2344417181E+00
          0                 3           1             4    7     1       0.1173871472E-03       4    7    1         0.6504849941E-02      0.1640267712E-01
          0                 4           1             4    7     1      -0.4665088142E-05       4    7    1        -0.2657140471E-03      0.6703153554E-03

    ------------------------------------------------
       NWT REQUIRED            4 OUTER ITERATIONS 
       AND A TOTAL OF          6 INNER ITERATIONS.
    ------------------------------------------------

 NO OUTPUT CONTROL FOR STRESS PERIOD   26   TIME STEP   12
 
 SOLVING FOR HEAD 
                                                   Max.-Head-Change                         Max.-Flux-Residual
  Residual-Control   Outer-Iter.   Inner-Iter.     Column Row Layer    Maximum-Head-Change  Column Row Layer    Maximum-Flux-Residual          L2-NORM 
          0                 1           2             4    7     1       0.1758359478E-01       4    7    1         0.9219898972E+00      0.2327665474E+01
          0                 2           2             4    7     1      -0.1709482824E-02       4    7    1        -0.9214925332E-01      0.2326827963E+00
          0                 3           1             4    7     1       0.1163216738E-03       4    7    1         0.6445572423E-02      0.1627967196E-01
          0                 4           1             4    7     1      -0.4622744902E-05       4    7    1        -0.2632926121E-03      0.6652872720E-03

    ------------------------------------------------
       NWT REQUIRED            4 OUTER ITERATIONS 
       AND A TOTAL OF          6 INNER ITERATIONS.
    ------------------------------------------------

 NO OUTPUT CONTROL FOR STRESS PERIOD   26   TIME STEP   13
 
 SOLVING FOR HEAD 
                                                   Max.-Head-Change                         Max.-Flux-Residual
  Residual-Control   Outer-Iter.   Inner-Iter.     Column Row Layer    Maximum-Head-Change  Column Row Layer    Maximum-Flux-Residual          L2-NORM 
          0                 1           2             4    7     1       0.1742454920E-01       4    7    1         0.9136171553E+00      0.2310287661E+01
          0                 2           2             4    7     1      -0.1694020282E-02       4    7    1        -0.9131242471E-01      0.2309459352E+00
          0                 3           1             4    7     1       0.1152695249E-03       4    7    1         0.6387038549E-02      0.1615819001E-01
          0                 4           1             4    7     1      -0.4580931363E-05       4    7    1        -0.2609015819E-03      0.6603462240E-03

    ------------------------------------------------
       NWT REQUIRED            4 OUTER ITERATIONS 
       AND A TOTAL OF          6 INNER ITERATIONS.
    ------------------------------------------------

 NO OUTPUT CONTROL FOR STRESS PERIOD   26   TIME STEP   14
 
 SOLVING FOR HEAD 
                                                   Max.-Head-Change                         Max.-Flux-Residual
  Residual-Control   Outer-Iter.   Inner-Iter.     Column Row Layer    Maximum-Head-Change  Column Row Layer    Maximum-Flux-Residual          L2-NORM 
          0                 1           2             4    7     1       0.1726748402E-01       4    7    1         0.9053488409E+00      0.2293116016E+01
          0                 2           2             4    7     1      -0.1678750276E-02       4    7    1        -0.9048603337E-01      0.2292296471E+00
          0                 3           1             4    7     1       0.1142304778E-03       4    7    1         0.6329234765E-02      0.1603809579E-01
          0                 4           1             4    7     1      -0.4539638662E-05       4    7    1        -0.2585403754E-03      0.6554290929E-03

    ------------------------------------------------
       NWT REQUIRED            4 OUTER ITERATIONS 
       AND A TOTAL OF          6 INNER ITERATIONS.
    ------------------------------------------------

 NO OUTPUT CONTROL FOR STRESS PERIOD   26   TIME STEP   15
 
 SOLVING FOR HEAD 
                                                   Max.-Head-Change                         Max.-Flux-Residual
  Residual-Control   Outer-Iter.   Inner-Iter.     Column Row Layer    Maximum-Head-Change  Column Row Layer    Maximum-Flux-Residual          L2-NORM 
          0                 1           2             4    7     1       0.1711250317E-01       4    7    1         0.8971905391E+00      0.2276163623E+01
          0                 2           2             4    7     1      -0.1663682912E-02       4    7    1        -0.8967063753E-01      0.2275352056E+00
          0                 3           1             4    7     1       0.1132052185E-03       4    7    1         0.6272200058E-02      0.1591967300E-01
          0                 4           1             4    7     1      -0.4498893162E-05       4    7    1        -0.2562105542E-03      0.6509722328E-03

    ------------------------------------------------
       NWT REQUIRED            4 OUTER ITERATIONS 
       AND A TOTAL OF          6 INNER ITERATIONS.
    ------------------------------------------------

 NO OUTPUT CONTROL FOR STRESS PERIOD   26   TIME STEP   16
 
 SOLVING FOR HEAD 
                                                   Max.-Head-Change                         Max.-Flux-Residual
  Residual-Control   Outer-Iter.   Inner-Iter.     Column Row Layer    Maximum-Head-Change  Column Row Layer    Maximum-Flux-Residual          L2-NORM 
          0                 1           2             4    7     1       0.1695956399E-01       4    7    1         0.8891403065E+00      0.2259414555E+01
          0                 2           2             4    7     1      -0.1648814042E-02       4    7    1        -0.8886604296E-01      0.2258611837E+00
          0                 3           1             4    7     1       0.1121934667E-03       4    7    1         0.6215920891E-02      0.1580249884E-01
          0                 4           1             4    7     1      -0.4458685423E-05       4    7    1        -0.2539116313E-03      0.6458176321E-03

    ------------------------------------------------
       NWT REQUIRED            4 OUTER ITERATIONS 
       AND A TOTAL OF          6 INNER ITERATIONS.
    ------------------------------------------------

 NO OUTPUT CONTROL FOR STRESS PERIOD   26   TIME STEP   17
 
 SOLVING FOR HEAD 
                                                   Max.-Head-Change                         Max.-Flux-Residual
  Residual-Control   Outer-Iter.   Inner-Iter.     Column Row Layer    Maximum-Head-Change  Column Row Layer    Maximum-Flux-Residual          L2-NORM 
          0                 1           2             4    7     1       0.1680862977E-01       4    7    1         0.8811959306E+00      0.2242878624E+01
          0                 2           2             4    7     1      -0.1634140098E-02       4    7    1        -0.8807202852E-01      0.2242084541E+00
          0                 3           1             4    7     1       0.1111949781E-03       4    7    1         0.6160381761E-02      0.1568687085E-01
          0                 4           1             4    7     1      -0.4419004508E-05       4    7    1        -0.2516429363E-03      0.6410613660E-03

    ------------------------------------------------
       NWT REQUIRED            4 OUTER ITERATIONS 
       AND A TOTAL OF          6 INNER ITERATIONS.
    ------------------------------------------------

 NO OUTPUT CONTROL FOR STRESS PERIOD   26   TIME STEP   18
 
 SOLVING FOR HEAD 
                                                   Max.-Head-Change                         Max.-Flux-Residual
  Residual-Control   Outer-Iter.   Inner-Iter.     Column Row Layer    Maximum-Head-Change  Column Row Layer    Maximum-Flux-Residual          L2-NORM 
          0                 1           2             4    7     1       0.1665952965E-01       4    7    1         0.8733481758E+00      0.2226533484E+01
          0                 2           2             4    7     1      -0.1622073857E-02       4    7    1        -0.8744268611E-01      0.2226158185E+00
          0                 3           1             4    7     1       0.1103739763E-03       4    7    1         0.6116361986E-02      0.1557547830E-01
          0                 4           1             4    7     1      -0.4386379994E-05       4    7    1        -0.2498448466E-03      0.6365161920E-03

    ------------------------------------------------
       NWT REQUIRED            4 OUTER ITERATIONS 
       AND A TOTAL OF          6 INNER ITERATIONS.
    ------------------------------------------------

 NO OUTPUT CONTROL FOR STRESS PERIOD   26   TIME STEP   19
 
 SOLVING FOR HEAD 
                                                   Max.-Head-Change                         Max.-Flux-Residual
  Residual-Control   Outer-Iter.   Inner-Iter.     Column Row Layer    Maximum-Head-Change  Column Row Layer    Maximum-Flux-Residual          L2-NORM 
          0                 1           2             4    7     1       0.1650692147E-01       4    7    1         0.8654733585E+00      0.2210356131E+01
          0                 2           2             4    7     1      -0.1604808541E-02       4    7    1        -0.8650063799E-01      0.2209577941E+00
          0                 3           1             4    7     1       0.1091991530E-03       4    7    1         0.6050467934E-02      0.1545948668E-01
          0                 4           1             4    7     1      -0.4339691147E-05       4    7    1        -0.2471531402E-03      0.6317808228E-03

    ------------------------------------------------
       NWT REQUIRED            4 OUTER ITERATIONS 
       AND A TOTAL OF          6 INNER ITERATIONS.
    ------------------------------------------------

 NO OUTPUT CONTROL FOR STRESS PERIOD   26   TIME STEP   20
 
 SOLVING FOR HEAD 
                                                   Max.-Head-Change                         Max.-Flux-Residual
  Residual-Control   Outer-Iter.   Inner-Iter.     Column Row Layer    Maximum-Head-Change  Column Row Layer    Maximum-Flux-Residual          L2-NORM 
          0                 1           2             4    7     1       0.1635895071E-01       4    7    1         0.8576755920E+00      0.2194362132E+01
          0                 2           2             4    7     1      -0.1590422684E-02       4    7    1        -0.8572127524E-01      0.2193591895E+00
          0                 3           1             4    7     1       0.1082202669E-03       4    7    1         0.5995953639E-02      0.1534768213E-01
          0                 4           1             4    7     1      -0.4300788956E-05       4    7    1        -0.2449262838E-03      0.6272330225E-03

    ------------------------------------------------
       NWT REQUIRED            4 OUTER ITERATIONS 
       AND A TOTAL OF          6 INNER ITERATIONS.
    ------------------------------------------------

 NO OUTPUT CONTROL FOR STRESS PERIOD   26   TIME STEP   21
 
 SOLVING FOR HEAD 
                                                   Max.-Head-Change                         Max.-Flux-Residual
  Residual-Control   Outer-Iter.   Inner-Iter.     Column Row Layer    Maximum-Head-Change  Column Row Layer    Maximum-Flux-Residual          L2-NORM 
          0                 1           2             4    7     1       0.1621306824E-01       4    7    1         0.8499888192E+00      0.2178565334E+01
          0                 2           2             4    7     1      -0.1576239855E-02       4    7    1        -0.8495300615E-01      0.2177802653E+00
          0                 3           1             4    7     1       0.1072551957E-03       4    7    1         0.5942215284E-02      0.1523719913E-01
          0                 4           1             4    7     1      -0.4262435807E-05       4    7    1        -0.2427311392E-03      0.6227017670E-03

    ------------------------------------------------
       NWT REQUIRED            4 OUTER ITERATIONS 
       AND A TOTAL OF          6 INNER ITERATIONS.
    ------------------------------------------------

 NO OUTPUT CONTROL FOR STRESS PERIOD   26   TIME STEP   22
 
 SOLVING FOR HEAD 
                                                   Max.-Head-Change                         Max.-Flux-Residual
  Residual-Control   Outer-Iter.   Inner-Iter.     Column Row Layer    Maximum-Head-Change  Column Row Layer    Maximum-Flux-Residual          L2-NORM 
          0                 1           2             4    7     1       0.1606909198E-01       4    7    1         0.8424029866E+00      0.2162960150E+01
          0                 2           2             4    7     1      -0.1562242352E-02       4    7    1        -0.8419482582E-01      0.2162205105E+00
          0                 3           1             4    7     1       0.1063027345E-03       4    7    1         0.5889182612E-02      0.1512808276E-01
          0                 4           1             4    7     1      -0.4224583694E-05       4    7    1        -0.2405647979E-03      0.6183999082E-03

    ------------------------------------------------
       NWT REQUIRED            4 OUTER ITERATIONS 
       AND A TOTAL OF          6 INNER ITERATIONS.
    ------------------------------------------------

 NO OUTPUT CONTROL FOR STRESS PERIOD   26   TIME STEP   23
 
 SOLVING FOR HEAD 
                                                   Max.-Head-Change                         Max.-Flux-Residual
  Residual-Control   Outer-Iter.   Inner-Iter.     Column Row Layer    Maximum-Head-Change  Column Row Layer    Maximum-Flux-Residual          L2-NORM 
          0                 1           2             4    7     1       0.1592725207E-01       4    7    1         0.8349306570E+00      0.2147543045E+01
          0                 2           2             4    7     1      -0.1548452548E-02       4    7    1        -0.8344798994E-01      0.2146795597E+00
          0                 3           1             4    7     1       0.1053644070E-03       4    7    1         0.5836943461E-02      0.1502030442E-01
          0                 4           1             4    7     1      -0.4187293634E-05       4    7    1        -0.2384309114E-03      0.6138384054E-03

    ------------------------------------------------
       NWT REQUIRED            4 OUTER ITERATIONS 
       AND A TOTAL OF          6 INNER ITERATIONS.
    ------------------------------------------------

 NO OUTPUT CONTROL FOR STRESS PERIOD   26   TIME STEP   24
 
 SOLVING FOR HEAD 
                                                   Max.-Head-Change                         Max.-Flux-Residual
  Residual-Control   Outer-Iter.   Inner-Iter.     Column Row Layer    Maximum-Head-Change  Column Row Layer    Maximum-Flux-Residual          L2-NORM 
          0                 1           2             4    7     1       0.1578722502E-01       4    7    1         0.8275544241E+00      0.2132306928E+01
          0                 2           2             4    7     1      -0.1534838995E-02       4    7    1        -0.8271075875E-01      0.2131566547E+00
          0                 3           1             4    7     1       0.1044380725E-03       4    7    1         0.5785376159E-02      0.1491376166E-01
          0                 4           1             4    7     1      -0.4150479972E-05       4    7    1        -0.2363244485E-03      0.6094816093E-03

    ------------------------------------------------
       NWT REQUIRED            4 OUTER ITERATIONS 
       AND A TOTAL OF          6 INNER ITERATIONS.
    ------------------------------------------------

 NO OUTPUT CONTROL FOR STRESS PERIOD   26   TIME STEP   25
 
 SOLVING FOR HEAD 
                                                   Max.-Head-Change                         Max.-Flux-Residual
  Residual-Control   Outer-Iter.   Inner-Iter.     Column Row Layer    Maximum-Head-Change  Column Row Layer    Maximum-Flux-Residual          L2-NORM 
          0                 1           2             4    7     1       0.1564910640E-01       4    7    1         0.8202795199E+00      0.2117253899E+01
          0                 2           2             4    7     1      -0.1521410982E-02       4    7    1        -0.8198365517E-01      0.2116520738E+00
          0                 3           1             4    7     1       0.1035243624E-03       4    7    1         0.5734517216E-02      0.1480851979E-01
          0                 4           1             4    7     1      -0.4114168151E-05       4    7    1        -0.2342469179E-03      0.6051945524E-03

    ------------------------------------------------
       NWT REQUIRED            4 OUTER ITERATIONS 
       AND A TOTAL OF          6 INNER ITERATIONS.
    ------------------------------------------------

 NO OUTPUT CONTROL FOR STRESS PERIOD   26   TIME STEP   26
 
 SOLVING FOR HEAD 
                                                   Max.-Head-Change                         Max.-Flux-Residual
  Residual-Control   Outer-Iter.   Inner-Iter.     Column Row Layer    Maximum-Head-Change  Column Row Layer    Maximum-Flux-Residual          L2-NORM 
          0                 1           2             4    7     1       0.1551285998E-01       4    7    1         0.8131035643E+00      0.2102373091E+01
          0                 2           2             4    7     1      -0.1508164988E-02       4    7    1        -0.8126644130E-01      0.2101646905E+00
          0                 3           1             4    7     1       0.1026230386E-03       4    7    1         0.5684350084E-02      0.1470446805E-01
          0                 4           1             4    7     1      -0.4078348501E-05       4    7    1        -0.2321976499E-03      0.6009351338E-03

    ------------------------------------------------
       NWT REQUIRED            4 OUTER ITERATIONS 
       AND A TOTAL OF          6 INNER ITERATIONS.
    ------------------------------------------------

 NO OUTPUT CONTROL FOR STRESS PERIOD   26   TIME STEP   27
 
 SOLVING FOR HEAD 
                                                   Max.-Head-Change                         Max.-Flux-Residual
  Residual-Control   Outer-Iter.   Inner-Iter.     Column Row Layer    Maximum-Head-Change  Column Row Layer    Maximum-Flux-Residual          L2-NORM 
          0                 1           2             4    7     1       0.1537844037E-01       4    7    1         0.8060246793E+00      0.2087677248E+01
          0                 2           2             4    7     1      -0.1495096600E-02       4    7    1        -0.8055892946E-01      0.2086958266E+00
          0                 3           1             4    7     1       0.1017337991E-03       4    7    1         0.5634861543E-02      0.1460172958E-01
          0                 4           1             4    7     1      -0.4043008818E-05       4    7    1        -0.2301760865E-03      0.5967335905E-03

    ------------------------------------------------
       NWT REQUIRED            4 OUTER ITERATIONS 
       AND A TOTAL OF          6 INNER ITERATIONS.
    ------------------------------------------------

 NO OUTPUT CONTROL FOR STRESS PERIOD   26   TIME STEP   28
 
 SOLVING FOR HEAD 
                                                   Max.-Head-Change                         Max.-Flux-Residual
  Residual-Control   Outer-Iter.   Inner-Iter.     Column Row Layer    Maximum-Head-Change  Column Row Layer    Maximum-Flux-Residual          L2-NORM 
          0                 1           2             4    7     1       0.1524581027E-01       4    7    1         0.7990405120E+00      0.2073150919E+01
          0                 2           2             4    7     1      -0.1482202190E-02       4    7    1        -0.7986088445E-01      0.2072438587E+00
          0                 3           1             4    7     1       0.1008563985E-03       4    7    1         0.5586035193E-02      0.1450014493E-01
          0                 4           1             4    7     1      -0.4008139776E-05       4    7    1        -0.2281815850E-03      0.5925945339E-03

    ------------------------------------------------
       NWT REQUIRED            4 OUTER ITERATIONS 
       AND A TOTAL OF          6 INNER ITERATIONS.
    ------------------------------------------------

 NO OUTPUT CONTROL FOR STRESS PERIOD   26   TIME STEP   29
 
 SOLVING FOR HEAD 
                                                   Max.-Head-Change                         Max.-Flux-Residual
  Residual-Control   Outer-Iter.   Inner-Iter.     Column Row Layer    Maximum-Head-Change  Column Row Layer    Maximum-Flux-Residual          L2-NORM 
          0                 1           2             4    7     1       0.1511506689E-01       4    7    1         0.7921564634E+00      0.2058799898E+01
          0                 2           2             4    7     1      -0.1469491212E-02       4    7    1        -0.7917284613E-01      0.2058094213E+00
          0                 3           1             4    7     1       0.9999147996E-04       4    7    1         0.5537908819E-02      0.1439981644E-01

    ------------------------------------------------
       NWT REQUIRED            3 OUTER ITERATIONS 
       AND A TOTAL OF          5 INNER ITERATIONS.
    ------------------------------------------------

 NO OUTPUT CONTROL FOR STRESS PERIOD   26   TIME STEP   30



 STREAM LISTING     PERIOD     26   STEP       30

 LAYER ROW COL. STREAM  RCH.  FLOW INTO     FLOW TO   FLOW OUT OF   OVRLND.     DIRECT     STREAM       STREAM     STREAM     STREAM   STREAMBED  STREAMBED
                SEG.NO.  NO.  STRM. RCH.    AQUIFER    STRM. RCH.    RUNOFF     PRECIP       ET          HEAD       DEPTH      WIDTH   CONDCTNC.   GRADIENT

   1    1    1     1     1    1.9000E+01  2.1427E-01   1.8786E+01  0.000E+00  0.000E+00  0.000E+00  1.09413E+03  1.082E+00  1.166E+01  5.249E-02  1.361E+00
   1    2    2     1     2    1.8786E+01  3.3054E-01   1.8455E+01  0.000E+00  0.000E+00  0.000E+00  1.08914E+03  1.077E+00  1.158E+01  8.107E-02  1.359E+00
   1    3    3     1     3    1.8455E+01  2.8064E-01   1.8175E+01  0.000E+00  0.000E+00  0.000E+00  1.08349E+03  1.072E+00  1.149E+01  6.892E-02  1.357E+00
   1    3    4     1     4    1.8175E+01  2.5740E-01   1.7917E+01  0.000E+00  0.000E+00  0.000E+00  1.07848E+03  1.068E+00  1.140E+01  6.328E-02  1.356E+00
   1    4    5     2     1    1.5917E+01  3.0542E-01   1.5612E+01  0.000E+00  0.000E+00  0.000E+00  1.07285E+03  9.157E-01  1.200E+01  7.800E-02  1.305E+00
   1    5    6     2     2    1.5612E+01  2.3438E-01   1.5377E+01  0.000E+00  0.000E+00  0.000E+00  1.06742E+03  9.063E-01  1.200E+01  6.000E-02  1.302E+00
   1    6    6     2     3    1.5377E+01  2.3388E-01   1.5143E+01  0.000E+00  0.000E+00  0.000E+00  1.06269E+03  8.980E-01  1.200E+01  6.000E-02  1.299E+00
   1    7    6     2     4    1.5143E+01  2.3338E-01   1.4910E+01  0.000E+00  0.000E+00  0.000E+00  1.05797E+03  8.897E-01  1.200E+01  6.000E-02  1.297E+00
   1    8    6     2     5    1.4910E+01  2.3289E-01   1.4677E+01  0.000E+00  0.000E+00  0.000E+00  1.05324E+03  8.814E-01  1.200E+01  6.000E-02  1.294E+00
   1    3    5     3     1    2.0000E+00  2.8252E-01   1.7175E+00  0.000E+00  0.000E+00  0.000E+00  1.07555E+03  1.909E+00  9.636E+00  7.227E-02  1.955E+00
   1    3    6     3     2    1.7175E+00  2.4905E-01   1.4684E+00  0.000E+00  0.000E+00  0.000E+00  1.07264E+03  1.727E+00  8.909E+00  6.682E-02  1.864E+00
   1    3    7     3     3    1.4684E+00  1.9718E-01   1.2712E+00  0.000E+00  0.000E+00  0.000E+00  1.06987E+03  1.555E+00  8.218E+00  5.547E-02  1.777E+00
   1    4    8     3     4    1.2712E+00  2.2567E-01   1.0456E+00  0.000E+00  0.000E+00  0.000E+00  1.06682E+03  1.364E+00  7.455E+00  6.709E-02  1.682E+00
   1    5    8     3     5    1.0456E+00  1.5790E-01   8.8768E-01  0.000E+00  0.000E+00  0.000E+00  1.06362E+03  1.164E+00  6.655E+00  4.991E-02  1.582E+00
   1    6    8     3     6    8.8768E-01  5.5980E-02   8.3170E-01  0.000E+00  0.000E+00  0.000E+00  1.06158E+03  1.036E+00  6.145E+00  1.844E-02  1.518E+00
   1    5   10     4     1    1.0000E+01  9.0919E-02   9.9091E+00  0.000E+00  0.000E+00  0.000E+00  1.07836E+03  6.368E-01  1.000E+01  2.500E-02  1.212E+00
   1    5    9     4     2    9.9091E+00  1.8158E-01   9.7275E+00  0.000E+00  0.000E+00  0.000E+00  1.07154E+03  6.315E-01  1.000E+01  5.000E-02  1.211E+00
   1    6    8     4     3    9.7275E+00  1.2689E-01   9.6006E+00  0.000E+00  0.000E+00  0.000E+00  1.06381E+03  6.256E-01  1.000E+01  3.500E-02  1.209E+00
   1    6    8     5     1    1.0432E+01  2.2686E-01   1.0205E+01  0.000E+00  0.000E+00  0.000E+00  1.05868E+03  6.790E-01  1.542E+01  6.166E-02  1.226E+00
   1    7    7     5     2    1.0205E+01  2.7894E-01   9.9265E+00  0.000E+00  0.000E+00  0.000E+00  1.05417E+03  6.732E-01  1.519E+01  7.594E-02  1.224E+00
   1    8    7     5     3    9.9265E+00  1.9221E-01   9.7343E+00  0.000E+00  0.000E+00  0.000E+00  1.04992E+03  6.676E-01  1.497E+01  5.241E-02  1.223E+00
   1    8    6     5     4    9.7343E+00  1.3577E-01   9.5985E+00  0.000E+00  0.000E+00  0.000E+00  1.04691E+03  6.637E-01  1.482E+01  3.706E-02  1.221E+00
   1    9    6     6     1    2.4276E+01  2.5176E-01   2.4024E+01  0.000E+00  0.000E+00  0.000E+00  1.04392E+03  1.196E+00  1.200E+01  6.000E-02  1.399E+00
   1   10    7     6     2    2.4024E+01  2.5131E-01   2.3773E+01  0.000E+00  0.000E+00  0.000E+00  1.03937E+03  1.188E+00  1.200E+01  6.000E-02  1.396E+00
   1   11    7     6     3    2.3773E+01  2.5086E-01   2.3522E+01  0.000E+00  0.000E+00  0.000E+00  1.03482E+03  1.181E+00  1.200E+01  6.000E-02  1.394E+00
   1   12    7     6     4    2.3522E+01  2.5041E-01   2.3271E+01  0.000E+00  0.000E+00  0.000E+00  1.03026E+03  1.173E+00  1.200E+01  6.000E-02  1.391E+00
   1   13    7     6     5    2.3271E+01  3.5486E-03   2.3268E+01  0.000E+00  0.000E+00  0.000E+00  1.02708E+03  1.170E+00  1.200E+01  2.400E-02  4.929E-02
   1   14    9     7     1    1.5000E+02  1.3390E+00   1.4866E+02  0.000E+00  0.000E+00  0.000E+00  1.03987E+03  2.288E+00  5.529E+01  5.593E-01  7.980E-01
   1   13    8     7     2    1.4866E+02  1.8650E+00   1.4680E+02  0.000E+00  0.000E+00  0.000E+00  1.03478E+03  2.279E+00  5.526E+01  6.148E-01  1.011E+00
   1   13    7     7     3    1.4680E+02  1.5405E+00   1.4526E+02  0.000E+00  0.000E+00  0.000E+00  1.02969E+03  2.270E+00  5.522E+01  5.584E-01  9.195E-01
   1   13    6     8     1    1.6852E+02  9.9173E-01   1.6753E+02  0.000E+00  0.000E+00  0.000E+00  1.02481E+03  2.939E+00  4.262E+01  4.343E-01  7.612E-01
   1   13    5     8     2    1.6753E+02  2.5076E-01   1.6728E+02  0.000E+00  0.000E+00  0.000E+00  1.01856E+03  2.935E+00  4.256E+01  4.337E-01  1.927E-01
   1   13    4     8     3    1.6728E+02 -2.1643E+00   1.6945E+02  0.000E+00  0.000E+00  0.000E+00  1.01232E+03  2.942E+00  4.265E+01  4.346E+00 -1.660E-01
   1   13    3     8     4    1.6945E+02 -3.5307E+00   1.7298E+02  0.000E+00  0.000E+00  0.000E+00  1.00609E+03  2.960E+00  4.292E+01  4.374E+00 -2.691E-01
   1   13    2     8     5    1.7298E+02 -2.5577E+00   1.7553E+02  0.000E+00  0.000E+00  0.000E+00  9.99855E+02  2.980E+00  4.321E+01  4.403E+00 -1.936E-01
   1   13    1     8     6    1.7553E+02 -1.9825E+00   1.7752E+02  0.000E+00  0.000E+00  0.000E+00  9.94869E+02  2.994E+00  4.342E+01  2.655E+00 -2.489E-01





UNSATURATED ZONE PACKAGE VOLUMETRIC BUDGET FOR  TIME STEP    30 STRESS PERIOD   26
  ------------------------------------------------------------------------------



     CUMULATIVE VOLUMES      L**3       RATES FOR THIS TIME STEP      L**3/T
     ------------------                 ------------------------

           IN:                                      IN:
           ---                                      ---
        INFILTRATION =   925892304.2609          INFILTRATION =           0.8475

          OUT:                                     OUT:
          ----                                     ----
              UZF ET =   849184582.9516                UZF ET =           0.7500
        UZF RECHARGE =    75863535.8445          UZF RECHARGE =           0.0002

            IN - OUT =      844185.4647              IN - OUT =       9.7306E-02

          STORAGE:                                 STORAGE:
          --------                                 --------
      STORAGE CHANGE =      844186.6857        STORAGE CHANGE =       9.7306E-02

 PERCENT DISCREPANCY IS DIFFERENCE BETWEEN IN-OUT MINUS CHANGE IN STORAGE
 DIVIDED BY THE AVERAGE OF IN AND OUT TIMES 100

 PERCENT DISCREPANCY =           0.00     PERCENT DISCREPANCY =           0.00






1
  VOLUMETRIC BUDGET FOR AGRICULTURAL FIELDS AT  END OF TIME STEP   30, STRESS PERIOD  26
  ------------------------------------------------------------------------------

     CUMULATIVE VOLUMES      L**3       RATES FOR THIS TIME STEP      L**3/T
     ------------------                 ------------------------

           IN:                                      IN:
           ---                                      ---
               AG WELLS  =   870094720.0000                 AG WELLS  =           0.0000
      DIVERSION SEGMENTS =           0.0000        DIVERSION SEGMENTS =           0.0000
       IRRIGATION PONDS  =           0.0000         IRRIGATION PONDS  =           0.0000
           GW IRRIGATION =           0.0000             GW IRRIGATION =           0.0000
           SW IRRIGATION =           0.0000             SW IRRIGATION =           0.0000
        SYSTEM LOSSES GW =           0.0000          SYSTEM LOSSES GW =           0.0000
        SYSTEM LOSSES SW =           0.0000          SYSTEM LOSSES SW =           0.0000

                TOTAL IN =   870094720.0000                  TOTAL IN =           0.0000

          OUT:                                     OUT:
          ----                                     ----
               AG WELLS  =           0.0000                 AG WELLS  =           0.0000
      DIVERSION SEGMENTS =           0.0000        DIVERSION SEGMENTS =           0.0000
       IRRIGATION PONDS  =           0.0000         IRRIGATION PONDS  =           0.0000
           GW IRRIGATION =   870094720.0000             GW IRRIGATION =           0.0000
           SW IRRIGATION =           0.0000             SW IRRIGATION =           0.0000
        SYSTEM LOSSES GW =           0.0000          SYSTEM LOSSES GW =           0.0000
        SYSTEM LOSSES SW =           0.0000          SYSTEM LOSSES SW =           0.0000

               TOTAL OUT =   870094720.0000                 TOTAL OUT =           0.0000

                IN - OUT =           0.0000                  IN - OUT =           0.0000

     PERCENT DISCREPANCY =           0.00         PERCENT DISCREPANCY =           0.00



1
  VOLUMETRIC BUDGET FOR ENTIRE MODEL AT END OF TIME STEP   30, STRESS PERIOD  26
  ------------------------------------------------------------------------------

     CUMULATIVE VOLUMES      L**3       RATES FOR THIS TIME STEP      L**3/T
     ------------------                 ------------------------

           IN:                                      IN:
           ---                                      ---
             STORAGE     =  1161796224.0000               STORAGE     =           6.0914
       CONSTANT HEAD     =           0.0000         CONSTANT HEAD     =           0.0000
     HEAD DEP BOUNDS     =    18796052.0000       HEAD DEP BOUNDS     =           0.2860
      STREAM LEAKAGE     =   815666496.0000        STREAM LEAKAGE     =          11.7191
        UZF RECHARGE     =    75863536.0000          UZF RECHARGE     =       1.9372E-04
               GW ET     =           0.0000                 GW ET     =           0.0000
     SURFACE LEAKAGE     =           0.0000       SURFACE LEAKAGE     =           0.0000
           AG WELLS      =           0.0000             AG WELLS      =           0.0000

                TOTAL IN =  2072122368.0000                  TOTAL IN =          18.0966

          OUT:                                     OUT:
          ----                                     ----
             STORAGE     =   482681760.0000               STORAGE     =           7.5725
       CONSTANT HEAD     =           0.0000         CONSTANT HEAD     =           0.0000
     HEAD DEP BOUNDS     =    19347226.0000       HEAD DEP BOUNDS     =           0.2894
      STREAM LEAKAGE     =   682393792.0000        STREAM LEAKAGE     =          10.2352
        UZF RECHARGE     =           0.0000          UZF RECHARGE     =           0.0000
               GW ET     =    17607784.0000                 GW ET     =           0.0000
     SURFACE LEAKAGE     =           0.0000       SURFACE LEAKAGE     =           0.0000
           AG WELLS      =   870094720.0000             AG WELLS      =           0.0000

               TOTAL OUT =  2072125312.0000                 TOTAL OUT =          18.0970

                IN - OUT =       -2944.0000                  IN - OUT =      -4.1580E-04

     PERCENT DISCREPANCY =          -0.00         PERCENT DISCREPANCY =          -0.00






         TIME SUMMARY AT END OF TIME STEP   30 IN STRESS PERIOD   26
                    SECONDS     MINUTES      HOURS       DAYS        YEARS
                    -----------------------------------------------------------
   TIME STEP LENGTH  87667.      1461.1      24.352      1.0147     2.77799E-03
 STRESS PERIOD TIME 2.63000E+06  43833.      730.56      30.440     8.33397E-02
         TOTAL TIME 6.58368E+07 1.09728E+06  18288.      762.00      2.0862    
1
1
                            STRESS PERIOD NO.   27, LENGTH =   2630000.    
                            -----------------------------------------------

                              NUMBER OF TIME STEPS =    30

                               MULTIPLIER FOR DELT =     1.000

                            INITIAL TIME STEP SIZE =   87666.66    

 REUSING NON-PARAMETER GHB CELLS FROM LAST STRESS PERIOD

      2 GHB CELLS

 REUSING STREAM SEGMENT DATA FROM LAST STRESS PERIOD



            AREAL INFILTRATION RATE
 READING ON UNIT   19 WITH FORMAT: (FREE)              

            1           2           3           4           5           6           7           8           9          10
 ........................................................................................................................
   1   1.0000E-10  2.0000E-10   0.000       0.000       0.000       0.000       0.000       0.000       0.000       0.000    
   2   2.0000E-10  1.0000E-10  2.0000E-10   0.000       0.000      8.0000E-10  8.0000E-10  5.0000E-10   0.000       0.000    
   3    0.000      5.0000E-10  1.0000E-10  1.0000E-10  8.0000E-10  8.0000E-10  5.0000E-10  5.0000E-10   0.000       0.000    
   4   8.0000E-10  5.0000E-10  1.0000E-10  1.0000E-10  1.0000E-10  1.0000E-10  1.0000E-10  1.0000E-10  2.0000E-10   0.000    
   5   8.0000E-10  5.0000E-10  1.0000E-10  1.0000E-10  1.0000E-10  1.0000E-10  1.0000E-10  1.0000E-10  1.0000E-10  1.0000E-10
   6   8.0000E-10  5.0000E-10  5.0000E-10  2.0000E-10  2.0000E-10  1.0000E-10  1.0000E-10  1.0000E-10  1.0000E-10  5.0000E-10
   7   8.0000E-10  5.0000E-10  5.0000E-10  2.0000E-10  2.0000E-10  1.0000E-10  1.0000E-10  2.0000E-10  2.0000E-10   0.000    
   8    0.000      5.0000E-10  5.0000E-10  2.0000E-10  2.0000E-10  1.0000E-10  1.0000E-10  2.0000E-10  5.0000E-10   0.000    
   9    0.000      5.0000E-10  5.0000E-10  2.0000E-10  2.0000E-10  1.0000E-10  1.0000E-10  2.0000E-10  5.0000E-10   0.000    
  10    0.000      5.0000E-10  5.0000E-10  2.0000E-10  2.0000E-10  1.0000E-10  1.0000E-10  2.0000E-10  5.0000E-10  8.0000E-10
  11    0.000      1.0000E-10  1.0000E-10  1.0000E-10  1.0000E-10  1.0000E-10  1.0000E-10  2.0000E-10  5.0000E-10   0.000    
  12   1.0000E-10  1.0000E-10  1.0000E-10  1.0000E-10  1.0000E-10  1.0000E-10  1.0000E-10  1.0000E-10  2.0000E-10   0.000    
  13   1.0000E-10  1.0000E-10  2.0000E-10  2.0000E-10  2.0000E-10  2.0000E-10  2.0000E-10  1.0000E-10  1.0000E-10   0.000    
  14    0.000      2.0000E-10  5.0000E-10  5.0000E-10  5.0000E-10  5.0000E-10  5.0000E-10  2.0000E-10  1.0000E-10   0.000    
  15    0.000       0.000      8.0000E-10  8.0000E-10  8.0000E-10  8.0000E-10   0.000       0.000       0.000       0.000    

                  ET RATE =  5.000000E-10

 USING ET EXTINCTION DEPTH FROM PREVIOUS STRESS PERIOD. CURRENT PERIOD IS:      27

 USING EXTINCTION WATER CONTENT FROM PREVIOUS STRESS PERIOD. CURRENT PERIOD IS:      27

 USING AIR ENTRY PRESSURE FROM PREVIOUS STRESS PERIOD. CURRENT PERIOD IS:      27

 USING ROOT PRESSURE HEAD FROM PREVIOUS STRESS PERIOD. CURRENT PERIOD IS:      27

 USING ROOT ACTIVITY FROM PREVIOUS STRESS PERIOD. CURRENT PERIOD IS:      27

 PROCESSING AG STRESS PERIOD DATA

 READING AG STRESS PERIOD DATA

 READING IRRIGATION WELL

 NO IRRPOND OR REUSING IRRPOND DATA FROM LAST STRESS PERIOD

 END PROCESSING AG STRESS PERIOD DATA OPTIONS
 
 SOLVING FOR HEAD 
                                                   Max.-Head-Change                         Max.-Flux-Residual
  Residual-Control   Outer-Iter.   Inner-Iter.     Column Row Layer    Maximum-Head-Change  Column Row Layer    Maximum-Flux-Residual          L2-NORM 
          0                 1           2             4    7     1       0.1498584993E-01       4    7    1         0.7853531245E+00      0.2044607875E+01
          0                 2           2             4    7     1      -0.1456928633E-02       4    7    1        -0.7849287456E-01      0.2043909102E+00
          0                 3           1             4    7     1       0.9913665846E-04       4    7    1         0.5490346633E-02      0.1430057205E-01

    ------------------------------------------------
       NWT REQUIRED            3 OUTER ITERATIONS 
       AND A TOTAL OF          5 INNER ITERATIONS.
    ------------------------------------------------

 NO OUTPUT CONTROL FOR STRESS PERIOD   27   TIME STEP    1
 
 SOLVING FOR HEAD 
                                                   Max.-Head-Change                         Max.-Flux-Residual
  Residual-Control   Outer-Iter.   Inner-Iter.     Column Row Layer    Maximum-Head-Change  Column Row Layer    Maximum-Flux-Residual          L2-NORM 
          0                 1           2             4    7     1       0.1485831214E-01       4    7    1         0.7786387354E+00      0.2030573119E+01
          0                 2           2             4    7     1      -0.1444529306E-02       4    7    1        -0.7782179331E-01      0.2029880642E+00
          0                 3           1             4    7     1       0.9829294641E-04       4    7    1         0.5443406358E-02      0.1420244109E-01

    ------------------------------------------------
       NWT REQUIRED            3 OUTER ITERATIONS 
       AND A TOTAL OF          5 INNER ITERATIONS.
    ------------------------------------------------

 NO OUTPUT CONTROL FOR STRESS PERIOD   27   TIME STEP    2
 
 SOLVING FOR HEAD 
                                                   Max.-Head-Change                         Max.-Flux-Residual
  Residual-Control   Outer-Iter.   Inner-Iter.     Column Row Layer    Maximum-Head-Change  Column Row Layer    Maximum-Flux-Residual          L2-NORM 
          0                 1           2             4    7     1       0.1473242087E-01       4    7    1         0.7720114080E+00      0.2016707003E+01
          0                 2           2             4    7     1      -0.1432290058E-02       4    7    1        -0.7715941373E-01      0.2016021056E+00
          0                 3           1             4    7     1       0.9746012595E-04       4    7    1         0.5397074705E-02      0.1410548892E-01

    ------------------------------------------------
       NWT REQUIRED            3 OUTER ITERATIONS 
       AND A TOTAL OF          5 INNER ITERATIONS.
    ------------------------------------------------

 NO OUTPUT CONTROL FOR STRESS PERIOD   27   TIME STEP    3
 
 SOLVING FOR HEAD 
                                                   Max.-Head-Change                         Max.-Flux-Residual
  Residual-Control   Outer-Iter.   Inner-Iter.     Column Row Layer    Maximum-Head-Change  Column Row Layer    Maximum-Flux-Residual          L2-NORM 
          0                 1           2             4    7     1       0.1460827343E-01       4    7    1         0.7654767871E+00      0.2003000619E+01
          0                 2           2             4    7     1      -0.1420220346E-02       4    7    1        -0.7650629995E-01      0.2002320962E+00
          0                 3           1             4    7     1       0.9663884212E-04       4    7    1         0.5351391193E-02      0.1400964672E-01

    ------------------------------------------------
       NWT REQUIRED            3 OUTER ITERATIONS 
       AND A TOTAL OF          5 INNER ITERATIONS.
    ------------------------------------------------

 NO OUTPUT CONTROL FOR STRESS PERIOD   27   TIME STEP    4
 
 SOLVING FOR HEAD 
                                                   Max.-Head-Change                         Max.-Flux-Residual
  Residual-Control   Outer-Iter.   Inner-Iter.     Column Row Layer    Maximum-Head-Change  Column Row Layer    Maximum-Flux-Residual          L2-NORM 
          0                 1           2             4    7     1       0.1448569995E-01       4    7    1         0.7590252428E+00      0.1989455274E+01
          0                 2           2             4    7     1      -0.1408303658E-02       4    7    1        -0.7586148952E-01      0.1988781811E+00
          0                 3           1             4    7     1       0.9582797074E-04       4    7    1         0.5306288469E-02      0.1391491239E-01

    ------------------------------------------------
       NWT REQUIRED            3 OUTER ITERATIONS 
       AND A TOTAL OF          5 INNER ITERATIONS.
    ------------------------------------------------

 NO OUTPUT CONTROL FOR STRESS PERIOD   27   TIME STEP    5
 
 SOLVING FOR HEAD 
                                                   Max.-Head-Change                         Max.-Flux-Residual
  Residual-Control   Outer-Iter.   Inner-Iter.     Column Row Layer    Maximum-Head-Change  Column Row Layer    Maximum-Flux-Residual          L2-NORM 
          0                 1           2             4    7     1       0.1436453411E-01       4    7    1         0.7526479678E+00      0.1976058484E+01
          0                 2           2             4    7     1      -0.1396523822E-02       4    7    1        -0.7522410209E-01      0.1975391133E+00
          0                 3           1             4    7     1       0.9502641138E-04       4    7    1         0.5261704976E-02      0.1382124362E-01

    ------------------------------------------------
       NWT REQUIRED            3 OUTER ITERATIONS 
       AND A TOTAL OF          5 INNER ITERATIONS.
    ------------------------------------------------

 NO OUTPUT CONTROL FOR STRESS PERIOD   27   TIME STEP    6
 
 SOLVING FOR HEAD 
                                                   Max.-Head-Change                         Max.-Flux-Residual
  Residual-Control   Outer-Iter.   Inner-Iter.     Column Row Layer    Maximum-Head-Change  Column Row Layer    Maximum-Flux-Residual          L2-NORM 
          0                 1           2             4    7     1       0.1424502334E-01       4    7    1         0.7463583513E+00      0.1962819622E+01
          0                 2           2             4    7     1      -0.1384904895E-02       4    7    1        -0.7459547596E-01      0.1962157155E+00
          0                 3           1             4    7     1       0.9423580112E-04       4    7    1         0.5217734300E-02      0.1372856281E-01

    ------------------------------------------------
       NWT REQUIRED            3 OUTER ITERATIONS 
       AND A TOTAL OF          5 INNER ITERATIONS.
    ------------------------------------------------

 NO OUTPUT CONTROL FOR STRESS PERIOD   27   TIME STEP    7
 
 SOLVING FOR HEAD 
                                                   Max.-Head-Change                         Max.-Flux-Residual
  Residual-Control   Outer-Iter.   Inner-Iter.     Column Row Layer    Maximum-Head-Change  Column Row Layer    Maximum-Flux-Residual          L2-NORM 
          0                 1           2             4    7     1       0.1412712724E-01       4    7    1         0.7401545476E+00      0.1949730496E+01
          0                 2           2             4    7     1      -0.1373442949E-02       4    7    1        -0.7397542662E-01      0.1949074978E+00
          0                 3           1             4    7     1       0.9345587287E-04       4    7    1         0.5174363558E-02      0.1363715969E-01

    ------------------------------------------------
       NWT REQUIRED            3 OUTER ITERATIONS 
       AND A TOTAL OF          5 INNER ITERATIONS.
    ------------------------------------------------

 NO OUTPUT CONTROL FOR STRESS PERIOD   27   TIME STEP    8
 
 SOLVING FOR HEAD 
                                                   Max.-Head-Change                         Max.-Flux-Residual
  Residual-Control   Outer-Iter.   Inner-Iter.     Column Row Layer    Maximum-Head-Change  Column Row Layer    Maximum-Flux-Residual          L2-NORM 
          0                 1           2             4    7     1       0.1401054511E-01       4    7    1         0.7340197850E+00      0.1936785785E+01
          0                 2           2             4    7     1      -0.1362108750E-02       4    7    1        -0.7336227779E-01      0.1936136429E+00
          0                 3           1             4    7     1       0.9268463693E-04       4    7    1         0.5131475487E-02      0.1354670227E-01

    ------------------------------------------------
       NWT REQUIRED            3 OUTER ITERATIONS 
       AND A TOTAL OF          5 INNER ITERATIONS.
    ------------------------------------------------

 NO OUTPUT CONTROL FOR STRESS PERIOD   27   TIME STEP    9
 
 SOLVING FOR HEAD 
                                                   Max.-Head-Change                         Max.-Flux-Residual
  Residual-Control   Outer-Iter.   Inner-Iter.     Column Row Layer    Maximum-Head-Change  Column Row Layer    Maximum-Flux-Residual          L2-NORM 
          0                 1           2             4    7     1       0.1389552581E-01       4    7    1         0.7279678263E+00      0.1923987304E+01
          0                 2           2             4    7     1      -0.1350926489E-02       4    7    1        -0.7275740499E-01      0.1923344015E+00
          0                 3           1             4    7     1       0.9192373981E-04       4    7    1         0.5089166313E-02      0.1345716225E-01

    ------------------------------------------------
       NWT REQUIRED            3 OUTER ITERATIONS 
       AND A TOTAL OF          5 INNER ITERATIONS.
    ------------------------------------------------

 NO OUTPUT CONTROL FOR STRESS PERIOD   27   TIME STEP   10
 
 SOLVING FOR HEAD 
                                                   Max.-Head-Change                         Max.-Flux-Residual
  Residual-Control   Outer-Iter.   Inner-Iter.     Column Row Layer    Maximum-Head-Change  Column Row Layer    Maximum-Flux-Residual          L2-NORM 
          0                 1           2             4    7     1       0.1378190182E-01       4    7    1         0.7219895581E+00      0.1911340398E+01
          0                 2           2             4    7     1      -0.1339879884E-02       4    7    1        -0.7215989739E-01      0.1910702804E+00
          0                 3           1             4    7     1       0.9117207343E-04       4    7    1         0.5047372306E-02      0.1336871702E-01

    ------------------------------------------------
       NWT REQUIRED            3 OUTER ITERATIONS 
       AND A TOTAL OF          5 INNER ITERATIONS.
    ------------------------------------------------

 NO OUTPUT CONTROL FOR STRESS PERIOD   27   TIME STEP   11
 
 SOLVING FOR HEAD 
                                                   Max.-Head-Change                         Max.-Flux-Residual
  Residual-Control   Outer-Iter.   Inner-Iter.     Column Row Layer    Maximum-Head-Change  Column Row Layer    Maximum-Flux-Residual          L2-NORM 
          0                 1           2             4    7     1       0.1366964358E-01       4    7    1         0.7160836347E+00      0.1898820230E+01
          0                 2           2             4    7     1      -0.1328966059E-02       4    7    1        -0.7156962049E-01      0.1898188056E+00
          0                 3           1             4    7     1       0.9042944181E-04       4    7    1         0.5006084057E-02      0.1328118360E-01

    ------------------------------------------------
       NWT REQUIRED            3 OUTER ITERATIONS 
       AND A TOTAL OF          5 INNER ITERATIONS.
    ------------------------------------------------

 NO OUTPUT CONTROL FOR STRESS PERIOD   27   TIME STEP   12
 
 SOLVING FOR HEAD 
                                                   Max.-Head-Change                         Max.-Flux-Residual
  Residual-Control   Outer-Iter.   Inner-Iter.     Column Row Layer    Maximum-Head-Change  Column Row Layer    Maximum-Flux-Residual          L2-NORM 
          0                 1           2             4    7     1       0.1355886471E-01       4    7    1         0.7102558616E+00      0.1886453995E+01
          0                 2           2             4    7     1      -0.1318196060E-02       4    7    1        -0.7098715453E-01      0.1885827249E+00
          0                 3           1             4    7     1       0.8969659711E-04       4    7    1         0.4965342187E-02      0.1319469155E-01

    ------------------------------------------------
       NWT REQUIRED            3 OUTER ITERATIONS 
       AND A TOTAL OF          5 INNER ITERATIONS.
    ------------------------------------------------

 NO OUTPUT CONTROL FOR STRESS PERIOD   27   TIME STEP   13
 
 SOLVING FOR HEAD 
                                                   Max.-Head-Change                         Max.-Flux-Residual
  Residual-Control   Outer-Iter.   Inner-Iter.     Column Row Layer    Maximum-Head-Change  Column Row Layer    Maximum-Flux-Residual          L2-NORM 
          0                 1           2             4    7     1       0.1344939741E-01       4    7    1         0.7044974518E+00      0.1874218809E+01
          0                 2           2             4    7     1      -0.1307553574E-02       4    7    1        -0.7041162124E-01      0.1873597856E+00
          0                 3           1             4    7     1       0.8897242885E-04       4    7    1         0.4925085223E-02      0.1310914460E-01

    ------------------------------------------------
       NWT REQUIRED            3 OUTER ITERATIONS 
       AND A TOTAL OF          5 INNER ITERATIONS.
    ------------------------------------------------

 NO OUTPUT CONTROL FOR STRESS PERIOD   27   TIME STEP   14
 
 SOLVING FOR HEAD 
                                                   Max.-Head-Change                         Max.-Flux-Residual
  Residual-Control   Outer-Iter.   Inner-Iter.     Column Row Layer    Maximum-Head-Change  Column Row Layer    Maximum-Flux-Residual          L2-NORM 
          0                 1           2             4    7     1       0.1334121864E-01       4    7    1         0.6988070447E+00      0.1862116536E+01
          0                 2           2             4    7     1      -0.1297036360E-02       4    7    1        -0.6984288466E-01      0.1861470035E+00
          0                 3           1             4    7     1       0.8825678485E-04       4    7    1         0.4885303678E-02      0.1302429227E-01

    ------------------------------------------------
       NWT REQUIRED            3 OUTER ITERATIONS 
       AND A TOTAL OF          5 INNER ITERATIONS.
    ------------------------------------------------

 NO OUTPUT CONTROL FOR STRESS PERIOD   27   TIME STEP   15
 
 SOLVING FOR HEAD 
                                                   Max.-Head-Change                         Max.-Flux-Residual
  Residual-Control   Outer-Iter.   Inner-Iter.     Column Row Layer    Maximum-Head-Change  Column Row Layer    Maximum-Flux-Residual          L2-NORM 
          0                 1           2             4    7     1       0.1323444094E-01       4    7    1         0.6931907844E+00      0.1850153249E+01
          0                 2           2             4    7     1      -0.1286655359E-02       4    7    1        -0.6928155886E-01      0.1849543277E+00
          0                 3           1             4    7     1       0.8755040933E-04       4    7    1         0.4846040490E-02      0.1294089008E-01

    ------------------------------------------------
       NWT REQUIRED            3 OUTER ITERATIONS 
       AND A TOTAL OF          5 INNER ITERATIONS.
    ------------------------------------------------

 NO OUTPUT CONTROL FOR STRESS PERIOD   27   TIME STEP   16
 
 SOLVING FOR HEAD 
                                                   Max.-Head-Change                         Max.-Flux-Residual
  Residual-Control   Outer-Iter.   Inner-Iter.     Column Row Layer    Maximum-Head-Change  Column Row Layer    Maximum-Flux-Residual          L2-NORM 
          0                 1           2             4    7     1       0.1312890256E-01       4    7    1         0.6876398277E+00      0.1838326162E+01
          0                 2           2             4    7     1      -0.1276394848E-02       4    7    1        -0.6872675999E-01      0.1837721501E+00
          0                 3           1             4    7     1       0.8685223264E-04       4    7    1         0.4807233848E-02      0.1285819689E-01

    ------------------------------------------------
       NWT REQUIRED            3 OUTER ITERATIONS 
       AND A TOTAL OF          5 INNER ITERATIONS.
    ------------------------------------------------

 NO OUTPUT CONTROL FOR STRESS PERIOD   27   TIME STEP   17
 
 SOLVING FOR HEAD 
                                                   Max.-Head-Change                         Max.-Flux-Residual
  Residual-Control   Outer-Iter.   Inner-Iter.     Column Row Layer    Maximum-Head-Change  Column Row Layer    Maximum-Flux-Residual          L2-NORM 
          0                 1           2             4    7     1       0.1302471490E-01       4    7    1         0.6821604675E+00      0.1826630573E+01
          0                 2           2             4    7     1      -0.1266265656E-02       4    7    1        -0.6817911702E-01      0.1826030799E+00
          0                 3           1             4    7     1       0.8616299168E-04       4    7    1         0.4768927741E-02      0.1277635601E-01

    ------------------------------------------------
       NWT REQUIRED            3 OUTER ITERATIONS 
       AND A TOTAL OF          5 INNER ITERATIONS.
    ------------------------------------------------

 NO OUTPUT CONTROL FOR STRESS PERIOD   27   TIME STEP   18
 
 SOLVING FOR HEAD 
                                                   Max.-Head-Change                         Max.-Flux-Residual
  Residual-Control   Outer-Iter.   Inner-Iter.     Column Row Layer    Maximum-Head-Change  Column Row Layer    Maximum-Flux-Residual          L2-NORM 
          0                 1           2             4    7     1       0.1292171631E-01       4    7    1         0.6767437998E+00      0.1815053825E+01
          0                 2           2             4    7     1      -0.1256252066E-02       4    7    1        -0.6763774001E-01      0.1814459525E+00
          0                 3           1             4    7     1       0.8548161666E-04       4    7    1         0.4731059916E-02      0.1269545868E-01

    ------------------------------------------------
       NWT REQUIRED            3 OUTER ITERATIONS 
       AND A TOTAL OF          5 INNER ITERATIONS.
    ------------------------------------------------

 NO OUTPUT CONTROL FOR STRESS PERIOD   27   TIME STEP   19
 
 SOLVING FOR HEAD 
                                                   Max.-Head-Change                         Max.-Flux-Residual
  Residual-Control   Outer-Iter.   Inner-Iter.     Column Row Layer    Maximum-Head-Change  Column Row Layer    Maximum-Flux-Residual          L2-NORM 
          0                 1           2             4    7     1       0.1282002300E-01       4    7    1         0.6713961233E+00      0.1803613809E+01
          0                 2           2             4    7     1      -0.1246365377E-02       4    7    1        -0.6710325848E-01      0.1803024603E+00
          0                 3           1             4    7     1       0.8480887691E-04       4    7    1         0.4693674435E-02      0.1261555546E-01

    ------------------------------------------------
       NWT REQUIRED            3 OUTER ITERATIONS 
       AND A TOTAL OF          5 INNER ITERATIONS.
    ------------------------------------------------

 NO OUTPUT CONTROL FOR STRESS PERIOD   27   TIME STEP   20
 
 SOLVING FOR HEAD 
                                                   Max.-Head-Change                         Max.-Flux-Residual
  Residual-Control   Outer-Iter.   Inner-Iter.     Column Row Layer    Maximum-Head-Change  Column Row Layer    Maximum-Flux-Residual          L2-NORM 
          0                 1           2             4    7     1       0.1271947156E-01       4    7    1         0.6661087820E+00      0.1792286975E+01
          0                 2           2             4    7     1      -0.1236589702E-02       4    7    1        -0.6657480731E-01      0.1791702751E+00
          0                 3           1             4    7     1       0.8414369082E-04       4    7    1         0.4656710749E-02      0.1253624877E-01

    ------------------------------------------------
       NWT REQUIRED            3 OUTER ITERATIONS 
       AND A TOTAL OF          5 INNER ITERATIONS.
    ------------------------------------------------

 NO OUTPUT CONTROL FOR STRESS PERIOD   27   TIME STEP   21
 
 SOLVING FOR HEAD 
                                                   Max.-Head-Change                         Max.-Flux-Residual
  Residual-Control   Outer-Iter.   Inner-Iter.     Column Row Layer    Maximum-Head-Change  Column Row Layer    Maximum-Flux-Residual          L2-NORM 
          0                 1           2             4    7     1       0.1262004497E-01       4    7    1         0.6608806448E+00      0.1781083849E+01
          0                 2           2             4    7     1      -0.1226923386E-02       4    7    1        -0.6605227343E-01      0.1780504093E+00
          0                 3           1             4    7     1       0.8348594598E-04       4    7    1         0.4620160938E-02      0.1245789551E-01

    ------------------------------------------------
       NWT REQUIRED            3 OUTER ITERATIONS 
       AND A TOTAL OF          5 INNER ITERATIONS.
    ------------------------------------------------

 NO OUTPUT CONTROL FOR STRESS PERIOD   27   TIME STEP   22
 
 SOLVING FOR HEAD 
                                                   Max.-Head-Change                         Max.-Flux-Residual
  Residual-Control   Outer-Iter.   Inner-Iter.     Column Row Layer    Maximum-Head-Change  Column Row Layer    Maximum-Flux-Residual          L2-NORM 
          0                 1           2             4    7     1       0.1252186069E-01       4    7    1         0.6557181702E+00      0.1770008373E+01
          0                 2           2             4    7     1      -0.1217377850E-02       4    7    1        -0.6553630233E-01      0.1769433948E+00
          0                 3           1             4    7     1       0.8283641997E-04       4    7    1         0.4584070204E-02      0.1238046476E-01

    ------------------------------------------------
       NWT REQUIRED            3 OUTER ITERATIONS 
       AND A TOTAL OF          5 INNER ITERATIONS.
    ------------------------------------------------

 NO OUTPUT CONTROL FOR STRESS PERIOD   27   TIME STEP   23
 
 SOLVING FOR HEAD 
                                                   Max.-Head-Change                         Max.-Flux-Residual
  Residual-Control   Outer-Iter.   Inner-Iter.     Column Row Layer    Maximum-Head-Change  Column Row Layer    Maximum-Flux-Residual          L2-NORM 
          0                 1           2             4    7     1       0.1242489231E-01       4    7    1         0.6506201073E+00      0.1759046493E+01
          0                 2           2             4    7     1      -0.1207950524E-02       4    7    1        -0.6502676903E-01      0.1758476997E+00
          0                 3           1             4    7     1       0.8219493719E-04       4    7    1         0.4548429762E-02      0.1230379809E-01

    ------------------------------------------------
       NWT REQUIRED            3 OUTER ITERATIONS 
       AND A TOTAL OF          5 INNER ITERATIONS.
    ------------------------------------------------

 NO OUTPUT CONTROL FOR STRESS PERIOD   27   TIME STEP   24
 
 SOLVING FOR HEAD 
                                                   Max.-Head-Change                         Max.-Flux-Residual
  Residual-Control   Outer-Iter.   Inner-Iter.     Column Row Layer    Maximum-Head-Change  Column Row Layer    Maximum-Flux-Residual          L2-NORM 
          0                 1           2             4    7     1       0.1232898166E-01       4    7    1         0.6455777450E+00      0.1748200907E+01
          0                 2           2             4    7     1      -0.1198626033E-02       4    7    1        -0.6452280284E-01      0.1747636429E+00
          0                 3           1             4    7     1       0.8156045259E-04       4    7    1         0.4513178756E-02      0.1222796294E-01

    ------------------------------------------------
       NWT REQUIRED            3 OUTER ITERATIONS 
       AND A TOTAL OF          5 INNER ITERATIONS.
    ------------------------------------------------

 NO OUTPUT CONTROL FOR STRESS PERIOD   27   TIME STEP   25
 
 SOLVING FOR HEAD 
                                                   Max.-Head-Change                         Max.-Flux-Residual
  Residual-Control   Outer-Iter.   Inner-Iter.     Column Row Layer    Maximum-Head-Change  Column Row Layer    Maximum-Flux-Residual          L2-NORM 
          0                 1           2             4    7     1       0.1223411401E-01       4    7    1         0.6405902239E+00      0.1737470382E+01
          0                 2           2             4    7     1      -0.1189402943E-02       4    7    1        -0.6402431789E-01      0.1736910289E+00
          0                 3           1             4    7     1       0.8093286703E-04       4    7    1         0.4478311112E-02      0.1215291915E-01

    ------------------------------------------------
       NWT REQUIRED            3 OUTER ITERATIONS 
       AND A TOTAL OF          5 INNER ITERATIONS.
    ------------------------------------------------

 NO OUTPUT CONTROL FOR STRESS PERIOD   27   TIME STEP   26
 
 SOLVING FOR HEAD 
                                                   Max.-Head-Change                         Max.-Flux-Residual
  Residual-Control   Outer-Iter.   Inner-Iter.     Column Row Layer    Maximum-Head-Change  Column Row Layer    Maximum-Flux-Residual          L2-NORM 
          0                 1           2             4    7     1       0.1214054267E-01       4    7    1         0.6356714647E+00      0.1726857933E+01
          0                 2           2             4    7     1      -0.1180305881E-02       4    7    1        -0.6353270549E-01      0.1726302619E+00
          0                 3           1             4    7     1       0.8031385684E-04       4    7    1         0.4443924184E-02      0.1207872015E-01

    ------------------------------------------------
       NWT REQUIRED            3 OUTER ITERATIONS 
       AND A TOTAL OF          5 INNER ITERATIONS.
    ------------------------------------------------

 NO OUTPUT CONTROL FOR STRESS PERIOD   27   TIME STEP   27
 
 SOLVING FOR HEAD 
                                                   Max.-Head-Change                         Max.-Flux-Residual
  Residual-Control   Outer-Iter.   Inner-Iter.     Column Row Layer    Maximum-Head-Change  Column Row Layer    Maximum-Flux-Residual          L2-NORM 
          0                 1           2             4    7     1       0.1204796971E-01       4    7    1         0.6308052321E+00      0.1716358276E+01
          0                 2           2             4    7     1      -0.1171305884E-02       4    7    1        -0.6304634300E-01      0.1715807686E+00
          0                 3           1             4    7     1       0.7970145209E-04       4    7    1         0.4409904496E-02      0.1200530031E-01

    ------------------------------------------------
       NWT REQUIRED            3 OUTER ITERATIONS 
       AND A TOTAL OF          5 INNER ITERATIONS.
    ------------------------------------------------

 NO OUTPUT CONTROL FOR STRESS PERIOD   27   TIME STEP   28
 
 SOLVING FOR HEAD 
                                                   Max.-Head-Change                         Max.-Flux-Residual
  Residual-Control   Outer-Iter.   Inner-Iter.     Column Row Layer    Maximum-Head-Change  Column Row Layer    Maximum-Flux-Residual          L2-NORM 
          0                 1           2             4    7     1       0.1195637932E-01       4    7    1         0.6259907641E+00      0.1705962430E+01
          0                 2           2             4    7     1      -0.1162401413E-02       4    7    1        -0.6256515420E-01      0.1705416475E+00
          0                 3           1             4    7     1       0.7909554721E-04       4    7    1         0.4376246687E-02      0.1193261385E-01

    ------------------------------------------------
       NWT REQUIRED            3 OUTER ITERATIONS 
       AND A TOTAL OF          5 INNER ITERATIONS.
    ------------------------------------------------

 NO OUTPUT CONTROL FOR STRESS PERIOD   27   TIME STEP   29
 
 SOLVING FOR HEAD 
                                                   Max.-Head-Change                         Max.-Flux-Residual
  Residual-Control   Outer-Iter.   Inner-Iter.     Column Row Layer    Maximum-Head-Change  Column Row Layer    Maximum-Flux-Residual          L2-NORM 
          0                 1           2             4    7     1       0.1186588820E-01       4    7    1         0.6212345827E+00      0.1695679696E+01
          0                 2           2             4    7     1      -0.1153603814E-02       4    7    1        -0.6208979105E-01      0.1695138302E+00
          0                 3           1             4    7     1       0.7849691471E-04       4    7    1         0.4342996377E-02      0.1186070704E-01

    ------------------------------------------------
       NWT REQUIRED            3 OUTER ITERATIONS 
       AND A TOTAL OF          5 INNER ITERATIONS.
    ------------------------------------------------

 NO OUTPUT CONTROL FOR STRESS PERIOD   27   TIME STEP   30



 STREAM LISTING     PERIOD     27   STEP       30

 LAYER ROW COL. STREAM  RCH.  FLOW INTO     FLOW TO   FLOW OUT OF   OVRLND.     DIRECT     STREAM       STREAM     STREAM     STREAM   STREAMBED  STREAMBED
                SEG.NO.  NO.  STRM. RCH.    AQUIFER    STRM. RCH.    RUNOFF     PRECIP       ET          HEAD       DEPTH      WIDTH   CONDCTNC.   GRADIENT

   1    1    1     1     1    1.9000E+01  2.1427E-01   1.8786E+01  0.000E+00  0.000E+00  0.000E+00  1.09413E+03  1.082E+00  1.166E+01  5.249E-02  1.361E+00
   1    2    2     1     2    1.8786E+01  3.3054E-01   1.8455E+01  0.000E+00  0.000E+00  0.000E+00  1.08914E+03  1.077E+00  1.158E+01  8.107E-02  1.359E+00
   1    3    3     1     3    1.8455E+01  2.8064E-01   1.8175E+01  0.000E+00  0.000E+00  0.000E+00  1.08349E+03  1.072E+00  1.149E+01  6.892E-02  1.357E+00
   1    3    4     1     4    1.8175E+01  2.5740E-01   1.7917E+01  0.000E+00  0.000E+00  0.000E+00  1.07848E+03  1.068E+00  1.140E+01  6.328E-02  1.356E+00
   1    4    5     2     1    1.5917E+01  3.0542E-01   1.5612E+01  0.000E+00  0.000E+00  0.000E+00  1.07285E+03  9.157E-01  1.200E+01  7.800E-02  1.305E+00
   1    5    6     2     2    1.5612E+01  2.3438E-01   1.5377E+01  0.000E+00  0.000E+00  0.000E+00  1.06742E+03  9.063E-01  1.200E+01  6.000E-02  1.302E+00
   1    6    6     2     3    1.5377E+01  2.3388E-01   1.5143E+01  0.000E+00  0.000E+00  0.000E+00  1.06269E+03  8.980E-01  1.200E+01  6.000E-02  1.299E+00
   1    7    6     2     4    1.5143E+01  2.3338E-01   1.4910E+01  0.000E+00  0.000E+00  0.000E+00  1.05797E+03  8.897E-01  1.200E+01  6.000E-02  1.297E+00
   1    8    6     2     5    1.4910E+01  2.3289E-01   1.4677E+01  0.000E+00  0.000E+00  0.000E+00  1.05324E+03  8.814E-01  1.200E+01  6.000E-02  1.294E+00
   1    3    5     3     1    2.0000E+00  2.8252E-01   1.7175E+00  0.000E+00  0.000E+00  0.000E+00  1.07555E+03  1.909E+00  9.636E+00  7.227E-02  1.955E+00
   1    3    6     3     2    1.7175E+00  2.4905E-01   1.4684E+00  0.000E+00  0.000E+00  0.000E+00  1.07264E+03  1.727E+00  8.909E+00  6.682E-02  1.864E+00
   1    3    7     3     3    1.4684E+00  1.9718E-01   1.2712E+00  0.000E+00  0.000E+00  0.000E+00  1.06987E+03  1.555E+00  8.218E+00  5.547E-02  1.777E+00
   1    4    8     3     4    1.2712E+00  2.2567E-01   1.0456E+00  0.000E+00  0.000E+00  0.000E+00  1.06682E+03  1.364E+00  7.455E+00  6.709E-02  1.682E+00
   1    5    8     3     5    1.0456E+00  1.5790E-01   8.8768E-01  0.000E+00  0.000E+00  0.000E+00  1.06362E+03  1.164E+00  6.655E+00  4.991E-02  1.582E+00
   1    6    8     3     6    8.8768E-01  5.5980E-02   8.3170E-01  0.000E+00  0.000E+00  0.000E+00  1.06158E+03  1.036E+00  6.145E+00  1.844E-02  1.518E+00
   1    5   10     4     1    1.0000E+01  9.0919E-02   9.9091E+00  0.000E+00  0.000E+00  0.000E+00  1.07836E+03  6.368E-01  1.000E+01  2.500E-02  1.212E+00
   1    5    9     4     2    9.9091E+00  1.8158E-01   9.7275E+00  0.000E+00  0.000E+00  0.000E+00  1.07154E+03  6.315E-01  1.000E+01  5.000E-02  1.211E+00
   1    6    8     4     3    9.7275E+00  1.2689E-01   9.6006E+00  0.000E+00  0.000E+00  0.000E+00  1.06381E+03  6.256E-01  1.000E+01  3.500E-02  1.209E+00
   1    6    8     5     1    1.0432E+01  2.2686E-01   1.0205E+01  0.000E+00  0.000E+00  0.000E+00  1.05868E+03  6.790E-01  1.542E+01  6.166E-02  1.226E+00
   1    7    7     5     2    1.0205E+01  2.7894E-01   9.9265E+00  0.000E+00  0.000E+00  0.000E+00  1.05417E+03  6.732E-01  1.519E+01  7.594E-02  1.224E+00
   1    8    7     5     3    9.9265E+00  1.9221E-01   9.7343E+00  0.000E+00  0.000E+00  0.000E+00  1.04992E+03  6.676E-01  1.497E+01  5.241E-02  1.223E+00
   1    8    6     5     4    9.7343E+00  1.3577E-01   9.5985E+00  0.000E+00  0.000E+00  0.000E+00  1.04691E+03  6.637E-01  1.482E+01  3.706E-02  1.221E+00
   1    9    6     6     1    2.4276E+01  2.5176E-01   2.4024E+01  0.000E+00  0.000E+00  0.000E+00  1.04392E+03  1.196E+00  1.200E+01  6.000E-02  1.399E+00
   1   10    7     6     2    2.4024E+01  2.5131E-01   2.3773E+01  0.000E+00  0.000E+00  0.000E+00  1.03937E+03  1.188E+00  1.200E+01  6.000E-02  1.396E+00
   1   11    7     6     3    2.3773E+01  2.5086E-01   2.3522E+01  0.000E+00  0.000E+00  0.000E+00  1.03482E+03  1.181E+00  1.200E+01  6.000E-02  1.394E+00
   1   12    7     6     4    2.3522E+01  2.5041E-01   2.3271E+01  0.000E+00  0.000E+00  0.000E+00  1.03026E+03  1.173E+00  1.200E+01  6.000E-02  1.391E+00
   1   13    7     6     5    2.3271E+01  4.2453E-03   2.3267E+01  0.000E+00  0.000E+00  0.000E+00  1.02708E+03  1.170E+00  1.200E+01  2.400E-02  5.896E-02
   1   14    9     7     1    1.5000E+02  1.3404E+00   1.4866E+02  0.000E+00  0.000E+00  0.000E+00  1.03987E+03  2.288E+00  5.529E+01  5.593E-01  7.989E-01
   1   13    8     7     2    1.4866E+02  1.8730E+00   1.4679E+02  0.000E+00  0.000E+00  0.000E+00  1.03478E+03  2.279E+00  5.526E+01  6.148E-01  1.016E+00
   1   13    7     7     3    1.4679E+02  1.5566E+00   1.4523E+02  0.000E+00  0.000E+00  0.000E+00  1.02969E+03  2.270E+00  5.522E+01  5.584E-01  9.292E-01
   1   13    6     8     1    1.6850E+02  1.0070E+00   1.6749E+02  0.000E+00  0.000E+00  0.000E+00  1.02481E+03  2.939E+00  4.262E+01  4.343E-01  7.729E-01
   1   13    5     8     2    1.6749E+02  2.6359E-01   1.6723E+02  0.000E+00  0.000E+00  0.000E+00  1.01856E+03  2.935E+00  4.256E+01  4.337E-01  2.026E-01
   1   13    4     8     3    1.6723E+02 -2.1251E+00   1.6935E+02  0.000E+00  0.000E+00  0.000E+00  1.01232E+03  2.941E+00  4.264E+01  4.346E+00 -1.630E-01
   1   13    3     8     4    1.6935E+02 -3.5075E+00   1.7286E+02  0.000E+00  0.000E+00  0.000E+00  1.00608E+03  2.959E+00  4.291E+01  4.373E+00 -2.674E-01
   1   13    2     8     5    1.7286E+02 -2.5498E+00   1.7541E+02  0.000E+00  0.000E+00  0.000E+00  9.99854E+02  2.979E+00  4.319E+01  4.402E+00 -1.931E-01
   1   13    1     8     6    1.7541E+02 -1.9783E+00   1.7739E+02  0.000E+00  0.000E+00  0.000E+00  9.94868E+02  2.993E+00  4.340E+01  2.654E+00 -2.485E-01





UNSATURATED ZONE PACKAGE VOLUMETRIC BUDGET FOR  TIME STEP    30 STRESS PERIOD   27
  ------------------------------------------------------------------------------



     CUMULATIVE VOLUMES      L**3       RATES FOR THIS TIME STEP      L**3/T
     ------------------                 ------------------------

           IN:                                      IN:
           ---                                      ---
        INFILTRATION =   928121229.1337          INFILTRATION =           0.8475

          OUT:                                     OUT:
          ----                                     ----
              UZF ET =   851157082.8277                UZF ET =           0.7500
        UZF RECHARGE =    75863988.7329          UZF RECHARGE =           0.0002

            IN - OUT =     1100157.5730              IN - OUT =       9.7346E-02

          STORAGE:                                 STORAGE:
          --------                                 --------
      STORAGE CHANGE =     1100158.8147        STORAGE CHANGE =       9.7346E-02

 PERCENT DISCREPANCY IS DIFFERENCE BETWEEN IN-OUT MINUS CHANGE IN STORAGE
 DIVIDED BY THE AVERAGE OF IN AND OUT TIMES 100

 PERCENT DISCREPANCY =           0.00     PERCENT DISCREPANCY =           0.00






1
  VOLUMETRIC BUDGET FOR AGRICULTURAL FIELDS AT  END OF TIME STEP   30, STRESS PERIOD  27
  ------------------------------------------------------------------------------

     CUMULATIVE VOLUMES      L**3       RATES FOR THIS TIME STEP      L**3/T
     ------------------                 ------------------------

           IN:                                      IN:
           ---                                      ---
               AG WELLS  =   870094720.0000                 AG WELLS  =           0.0000
      DIVERSION SEGMENTS =           0.0000        DIVERSION SEGMENTS =           0.0000
       IRRIGATION PONDS  =           0.0000         IRRIGATION PONDS  =           0.0000
           GW IRRIGATION =           0.0000             GW IRRIGATION =           0.0000
           SW IRRIGATION =           0.0000             SW IRRIGATION =           0.0000
        SYSTEM LOSSES GW =           0.0000          SYSTEM LOSSES GW =           0.0000
        SYSTEM LOSSES SW =           0.0000          SYSTEM LOSSES SW =           0.0000

                TOTAL IN =   870094720.0000                  TOTAL IN =           0.0000

          OUT:                                     OUT:
          ----                                     ----
               AG WELLS  =           0.0000                 AG WELLS  =           0.0000
      DIVERSION SEGMENTS =           0.0000        DIVERSION SEGMENTS =           0.0000
       IRRIGATION PONDS  =           0.0000         IRRIGATION PONDS  =           0.0000
           GW IRRIGATION =   870094720.0000             GW IRRIGATION =           0.0000
           SW IRRIGATION =           0.0000             SW IRRIGATION =           0.0000
        SYSTEM LOSSES GW =           0.0000          SYSTEM LOSSES GW =           0.0000
        SYSTEM LOSSES SW =           0.0000          SYSTEM LOSSES SW =           0.0000

               TOTAL OUT =   870094720.0000                 TOTAL OUT =           0.0000

                IN - OUT =           0.0000                  IN - OUT =           0.0000

     PERCENT DISCREPANCY =           0.00         PERCENT DISCREPANCY =           0.00



1
  VOLUMETRIC BUDGET FOR ENTIRE MODEL AT END OF TIME STEP   30, STRESS PERIOD  27
  ------------------------------------------------------------------------------

     CUMULATIVE VOLUMES      L**3       RATES FOR THIS TIME STEP      L**3/T
     ------------------                 ------------------------

           IN:                                      IN:
           ---                                      ---
             STORAGE     =  1176331776.0000               STORAGE     =           5.0346
       CONSTANT HEAD     =           0.0000         CONSTANT HEAD     =           0.0000
     HEAD DEP BOUNDS     =    19548294.0000       HEAD DEP BOUNDS     =           0.2861
      STREAM LEAKAGE     =   846563008.0000        STREAM LEAKAGE     =          11.7735
        UZF RECHARGE     =    75864016.0000          UZF RECHARGE     =       1.5427E-04
               GW ET     =           0.0000                 GW ET     =           0.0000
     SURFACE LEAKAGE     =           0.0000       SURFACE LEAKAGE     =           0.0000
           AG WELLS      =           0.0000             AG WELLS      =           0.0000

                TOTAL IN =  2118307072.0000                  TOTAL IN =          17.0943

          OUT:                                     OUT:
          ----                                     ----
             STORAGE     =   501295232.0000               STORAGE     =           6.6447
       CONSTANT HEAD     =           0.0000         CONSTANT HEAD     =           0.0000
     HEAD DEP BOUNDS     =    20108246.0000       HEAD DEP BOUNDS     =           0.2893
      STREAM LEAKAGE     =   709205248.0000        STREAM LEAKAGE     =          10.1607
        UZF RECHARGE     =           0.0000          UZF RECHARGE     =           0.0000
               GW ET     =    17607784.0000                 GW ET     =           0.0000
     SURFACE LEAKAGE     =           0.0000       SURFACE LEAKAGE     =           0.0000
           AG WELLS      =   870094720.0000             AG WELLS      =           0.0000

               TOTAL OUT =  2118311296.0000                 TOTAL OUT =          17.0948

                IN - OUT =       -4224.0000                  IN - OUT =      -4.5395E-04

     PERCENT DISCREPANCY =          -0.00         PERCENT DISCREPANCY =          -0.00






         TIME SUMMARY AT END OF TIME STEP   30 IN STRESS PERIOD   27
                    SECONDS     MINUTES      HOURS       DAYS        YEARS
                    -----------------------------------------------------------
   TIME STEP LENGTH  87667.      1461.1      24.352      1.0147     2.77799E-03
 STRESS PERIOD TIME 2.63000E+06  43833.      730.56      30.440     8.33397E-02
         TOTAL TIME 6.84668E+07 1.14111E+06  19019.      792.44      2.1696    
1
1
                            STRESS PERIOD NO.   28, LENGTH =   2630000.    
                            -----------------------------------------------

                              NUMBER OF TIME STEPS =    30

                               MULTIPLIER FOR DELT =     1.000

                            INITIAL TIME STEP SIZE =   87666.66    

 REUSING NON-PARAMETER GHB CELLS FROM LAST STRESS PERIOD

      2 GHB CELLS

 REUSING STREAM SEGMENT DATA FROM LAST STRESS PERIOD



            AREAL INFILTRATION RATE
 READING ON UNIT   19 WITH FORMAT: (FREE)              

            1           2           3           4           5           6           7           8           9          10
 ........................................................................................................................
   1   1.0000E-10  2.0000E-10   0.000       0.000       0.000       0.000       0.000       0.000       0.000       0.000    
   2   2.0000E-10  1.0000E-10  2.0000E-10   0.000       0.000      8.0000E-10  8.0000E-10  5.0000E-10   0.000       0.000    
   3    0.000      5.0000E-10  1.0000E-10  1.0000E-10  8.0000E-10  8.0000E-10  5.0000E-10  5.0000E-10   0.000       0.000    
   4   8.0000E-10  5.0000E-10  1.0000E-10  1.0000E-10  1.0000E-10  1.0000E-10  1.0000E-10  1.0000E-10  2.0000E-10   0.000    
   5   8.0000E-10  5.0000E-10  1.0000E-10  1.0000E-10  1.0000E-10  1.0000E-10  1.0000E-10  1.0000E-10  1.0000E-10  1.0000E-10
   6   8.0000E-10  5.0000E-10  5.0000E-10  2.0000E-10  2.0000E-10  1.0000E-10  1.0000E-10  1.0000E-10  1.0000E-10  5.0000E-10
   7   8.0000E-10  5.0000E-10  5.0000E-10  2.0000E-10  2.0000E-10  1.0000E-10  1.0000E-10  2.0000E-10  2.0000E-10   0.000    
   8    0.000      5.0000E-10  5.0000E-10  2.0000E-10  2.0000E-10  1.0000E-10  1.0000E-10  2.0000E-10  5.0000E-10   0.000    
   9    0.000      5.0000E-10  5.0000E-10  2.0000E-10  2.0000E-10  1.0000E-10  1.0000E-10  2.0000E-10  5.0000E-10   0.000    
  10    0.000      5.0000E-10  5.0000E-10  2.0000E-10  2.0000E-10  1.0000E-10  1.0000E-10  2.0000E-10  5.0000E-10  8.0000E-10
  11    0.000      1.0000E-10  1.0000E-10  1.0000E-10  1.0000E-10  1.0000E-10  1.0000E-10  2.0000E-10  5.0000E-10   0.000    
  12   1.0000E-10  1.0000E-10  1.0000E-10  1.0000E-10  1.0000E-10  1.0000E-10  1.0000E-10  1.0000E-10  2.0000E-10   0.000    
  13   1.0000E-10  1.0000E-10  2.0000E-10  2.0000E-10  2.0000E-10  2.0000E-10  2.0000E-10  1.0000E-10  1.0000E-10   0.000    
  14    0.000      2.0000E-10  5.0000E-10  5.0000E-10  5.0000E-10  5.0000E-10  5.0000E-10  2.0000E-10  1.0000E-10   0.000    
  15    0.000       0.000      8.0000E-10  8.0000E-10  8.0000E-10  8.0000E-10   0.000       0.000       0.000       0.000    

                  ET RATE =  5.000000E-10

 USING ET EXTINCTION DEPTH FROM PREVIOUS STRESS PERIOD. CURRENT PERIOD IS:      28

 USING EXTINCTION WATER CONTENT FROM PREVIOUS STRESS PERIOD. CURRENT PERIOD IS:      28

 USING AIR ENTRY PRESSURE FROM PREVIOUS STRESS PERIOD. CURRENT PERIOD IS:      28

 USING ROOT PRESSURE HEAD FROM PREVIOUS STRESS PERIOD. CURRENT PERIOD IS:      28

 USING ROOT ACTIVITY FROM PREVIOUS STRESS PERIOD. CURRENT PERIOD IS:      28

 PROCESSING AG STRESS PERIOD DATA

 READING AG STRESS PERIOD DATA

 READING IRRIGATION WELL

 NO IRRPOND OR REUSING IRRPOND DATA FROM LAST STRESS PERIOD

 END PROCESSING AG STRESS PERIOD DATA OPTIONS
 
 SOLVING FOR HEAD 
                                                   Max.-Head-Change                         Max.-Flux-Residual
  Residual-Control   Outer-Iter.   Inner-Iter.     Column Row Layer    Maximum-Head-Change  Column Row Layer    Maximum-Flux-Residual          L2-NORM 
          0                 1           2             4    7     1       0.1177648118E-01       4    7    1         0.6165353965E+00      0.1685501659E+01
          0                 2           2             4    7     1      -0.1144911614E-02       4    7    1        -0.6162012437E-01      0.1684964886E+00
          0                 3           1             4    7     1       0.7790545377E-04       4    7    1         0.4310144509E-02      0.1178950050E-01

    ------------------------------------------------
       NWT REQUIRED            3 OUTER ITERATIONS 
       AND A TOTAL OF          5 INNER ITERATIONS.
    ------------------------------------------------

 NO OUTPUT CONTROL FOR STRESS PERIOD   28   TIME STEP    1
 
 SOLVING FOR HEAD 
                                                   Max.-Head-Change                         Max.-Flux-Residual
  Residual-Control   Outer-Iter.   Inner-Iter.     Column Row Layer    Maximum-Head-Change  Column Row Layer    Maximum-Flux-Residual          L2-NORM 
          0                 1           2             4    7     1       0.1168813718E-01       4    7    1         0.6118924197E+00      0.1675441748E+01
          0                 2           2             4    7     1      -0.1136322761E-02       4    7    1        -0.6115607565E-01      0.1674909262E+00
          0                 3           1             4    7     1       0.7732102486E-04       4    7    1         0.4277685594E-02      0.1171919161E-01

    ------------------------------------------------
       NWT REQUIRED            3 OUTER ITERATIONS 
       AND A TOTAL OF          5 INNER ITERATIONS.
    ------------------------------------------------

 NO OUTPUT CONTROL FOR STRESS PERIOD   28   TIME STEP    2
 
 SOLVING FOR HEAD 
                                                   Max.-Head-Change                         Max.-Flux-Residual
  Residual-Control   Outer-Iter.   Inner-Iter.     Column Row Layer    Maximum-Head-Change  Column Row Layer    Maximum-Flux-Residual          L2-NORM 
          0                 1           2             4    7     1       0.1160069936E-01       4    7    1         0.6072972152E+00      0.1665471456E+01
          0                 2           2             4    7     1      -0.1127822006E-02       4    7    1        -0.6069680165E-01      0.1664943326E+00
          0                 3           1             4    7     1       0.7674259089E-04       4    7    1         0.4245560657E-02      0.1164948137E-01

    ------------------------------------------------
       NWT REQUIRED            3 OUTER ITERATIONS 
       AND A TOTAL OF          5 INNER ITERATIONS.
    ------------------------------------------------

 NO OUTPUT CONTROL FOR STRESS PERIOD   28   TIME STEP    3
 
 SOLVING FOR HEAD 
                                                   Max.-Head-Change                         Max.-Flux-Residual
  Residual-Control   Outer-Iter.   Inner-Iter.     Column Row Layer    Maximum-Head-Change  Column Row Layer    Maximum-Flux-Residual          L2-NORM 
          0                 1           2             4    7     1       0.1151429170E-01       4    7    1         0.6027563373E+00      0.1655611718E+01
          0                 2           2             4    7     1      -0.1119421406E-02       4    7    1        -0.6024295744E-01      0.1655087997E+00
          0                 3           1             4    7     1       0.7617097204E-04       4    7    1         0.4213815530E-02      0.1158053449E-01

    ------------------------------------------------
       NWT REQUIRED            3 OUTER ITERATIONS 
       AND A TOTAL OF          5 INNER ITERATIONS.
    ------------------------------------------------

 NO OUTPUT CONTROL FOR STRESS PERIOD   28   TIME STEP    4
 
 SOLVING FOR HEAD 
                                                   Max.-Head-Change                         Max.-Flux-Residual
  Residual-Control   Outer-Iter.   Inner-Iter.     Column Row Layer    Maximum-Head-Change  Column Row Layer    Maximum-Flux-Residual          L2-NORM 
          0                 1           2             4    7     1       0.1142876048E-01       4    7    1         0.5982615282E+00      0.1645852872E+01
          0                 2           2             4    7     1      -0.1111106014E-02       4    7    1        -0.5979371768E-01      0.1645333296E+00
          0                 3           1             4    7     1       0.7560515122E-04       4    7    1         0.4182392478E-02      0.1151229357E-01

    ------------------------------------------------
       NWT REQUIRED            3 OUTER ITERATIONS 
       AND A TOTAL OF          5 INNER ITERATIONS.
    ------------------------------------------------

 NO OUTPUT CONTROL FOR STRESS PERIOD   28   TIME STEP    5
 
 SOLVING FOR HEAD 
                                                   Max.-Head-Change                         Max.-Flux-Residual
  Residual-Control   Outer-Iter.   Inner-Iter.     Column Row Layer    Maximum-Head-Change  Column Row Layer    Maximum-Flux-Residual          L2-NORM 
          0                 1           2             4    7     1       0.1134422731E-01       4    7    1         0.5938195041E+00      0.1636188064E+01
          0                 2           2             4    7     1      -0.1102887654E-02       4    7    1        -0.5934975361E-01      0.1635672787E+00
          0                 3           1             4    7     1       0.7504593251E-04       4    7    1         0.4151338434E-02      0.1144469235E-01

    ------------------------------------------------
       NWT REQUIRED            3 OUTER ITERATIONS 
       AND A TOTAL OF          5 INNER ITERATIONS.
    ------------------------------------------------

 NO OUTPUT CONTROL FOR STRESS PERIOD   28   TIME STEP    6
 
 SOLVING FOR HEAD 
                                                   Max.-Head-Change                         Max.-Flux-Residual
  Residual-Control   Outer-Iter.   Inner-Iter.     Column Row Layer    Maximum-Head-Change  Column Row Layer    Maximum-Flux-Residual          L2-NORM 
          0                 1           2             4    7     1       0.1126067516E-01       4    7    1         0.5894292280E+00      0.1626630676E+01
          0                 2           2             4    7     1      -0.1094764670E-02       4    7    1        -0.5891096161E-01      0.1626119515E+00
          0                 3           1             4    7     1       0.7449320433E-04       4    7    1         0.4120646179E-02      0.1137793299E-01

    ------------------------------------------------
       NWT REQUIRED            3 OUTER ITERATIONS 
       AND A TOTAL OF          5 INNER ITERATIONS.
    ------------------------------------------------

 NO OUTPUT CONTROL FOR STRESS PERIOD   28   TIME STEP    7
 
 SOLVING FOR HEAD 
                                                   Max.-Head-Change                         Max.-Flux-Residual
  Residual-Control   Outer-Iter.   Inner-Iter.     Column Row Layer    Maximum-Head-Change  Column Row Layer    Maximum-Flux-Residual          L2-NORM 
          0                 1           2             4    7     1       0.1117808742E-01       4    7    1         0.5850898154E+00      0.1617168008E+01
          0                 2           2             4    7     1      -0.1086735446E-02       4    7    1        -0.5847725327E-01      0.1616661079E+00
          0                 3           1             4    7     1       0.7394685521E-04       4    7    1         0.4090309480E-02      0.1131169711E-01

    ------------------------------------------------
       NWT REQUIRED            3 OUTER ITERATIONS 
       AND A TOTAL OF          5 INNER ITERATIONS.
    ------------------------------------------------

 NO OUTPUT CONTROL FOR STRESS PERIOD   28   TIME STEP    8
 
 SOLVING FOR HEAD 
                                                   Max.-Head-Change                         Max.-Flux-Residual
  Residual-Control   Outer-Iter.   Inner-Iter.     Column Row Layer    Maximum-Head-Change  Column Row Layer    Maximum-Flux-Residual          L2-NORM 
          0                 1           2             4    7     1       0.1109644629E-01       4    7    1         0.5808004064E+00      0.1607807573E+01
          0                 2           2             4    7     1      -0.1078798253E-02       4    7    1        -0.5804854264E-01      0.1607304548E+00
          0                 3           1             4    7     1       0.7340676929E-04       4    7    1         0.4060322401E-02      0.1124625533E-01

    ------------------------------------------------
       NWT REQUIRED            3 OUTER ITERATIONS 
       AND A TOTAL OF          5 INNER ITERATIONS.
    ------------------------------------------------

 NO OUTPUT CONTROL FOR STRESS PERIOD   28   TIME STEP    9
 
 SOLVING FOR HEAD 
                                                   Max.-Head-Change                         Max.-Flux-Residual
  Residual-Control   Outer-Iter.   Inner-Iter.     Column Row Layer    Maximum-Head-Change  Column Row Layer    Maximum-Flux-Residual          L2-NORM 
          0                 1           2             4    7     1       0.1101559687E-01       4    7    1         0.5765527328E+00      0.1598527728E+01
          0                 2           2             4    7     1      -0.1070938030E-02       4    7    1        -0.5762400335E-01      0.1598028644E+00
          0                 3           1             4    7     1       0.7287191988E-04       4    7    1         0.4030627047E-02      0.1118135121E-01

    ------------------------------------------------
       NWT REQUIRED            3 OUTER ITERATIONS 
       AND A TOTAL OF          5 INNER ITERATIONS.
    ------------------------------------------------

 NO OUTPUT CONTROL FOR STRESS PERIOD   28   TIME STEP   10
 
 SOLVING FOR HEAD 
                                                   Max.-Head-Change                         Max.-Flux-Residual
  Residual-Control   Outer-Iter.   Inner-Iter.     Column Row Layer    Maximum-Head-Change  Column Row Layer    Maximum-Flux-Residual          L2-NORM 
          0                 1           2             4    7     1       0.1093566775E-01       4    7    1         0.5723534523E+00      0.1589351936E+01
          0                 2           2             4    7     1      -0.1063167280E-02       4    7    1        -0.5720430079E-01      0.1588857089E+00
          0                 3           1             4    7     1       0.7234315889E-04       4    7    1         0.4001270034E-02      0.1111720013E-01

    ------------------------------------------------
       NWT REQUIRED            3 OUTER ITERATIONS 
       AND A TOTAL OF          5 INNER ITERATIONS.
    ------------------------------------------------

 NO OUTPUT CONTROL FOR STRESS PERIOD   28   TIME STEP   11
 
 SOLVING FOR HEAD 
                                                   Max.-Head-Change                         Max.-Flux-Residual
  Residual-Control   Outer-Iter.   Inner-Iter.     Column Row Layer    Maximum-Head-Change  Column Row Layer    Maximum-Flux-Residual          L2-NORM 
          0                 1           2             4    7     1       0.1085664316E-01       4    7    1         0.5682018876E+00      0.1580274660E+01
          0                 2           2             4    7     1      -0.1055484469E-02       4    7    1        -0.5678936730E-01      0.1579783766E+00
          0                 3           1             4    7     1       0.7182038207E-04       4    7    1         0.3972246601E-02      0.1105373068E-01

    ------------------------------------------------
       NWT REQUIRED            3 OUTER ITERATIONS 
       AND A TOTAL OF          5 INNER ITERATIONS.
    ------------------------------------------------

 NO OUTPUT CONTROL FOR STRESS PERIOD   28   TIME STEP   12
 
 SOLVING FOR HEAD 
                                                   Max.-Head-Change                         Max.-Flux-Residual
  Residual-Control   Outer-Iter.   Inner-Iter.     Column Row Layer    Maximum-Head-Change  Column Row Layer    Maximum-Flux-Residual          L2-NORM 
          0                 1           2             4    7     1       0.1077850468E-01       4    7    1         0.5640972215E+00      0.1571275628E+01
          0                 2           2             4    7     1      -0.1047887807E-02       4    7    1        -0.5637912121E-01      0.1570788875E+00
          0                 3           1             4    7     1       0.7130346729E-04       4    7    1         0.3943551065E-02      0.1099085797E-01

    ------------------------------------------------
       NWT REQUIRED            3 OUTER ITERATIONS 
       AND A TOTAL OF          5 INNER ITERATIONS.
    ------------------------------------------------

 NO OUTPUT CONTROL FOR STRESS PERIOD   28   TIME STEP   13
 
 SOLVING FOR HEAD 
                                                   Max.-Head-Change                         Max.-Flux-Residual
  Residual-Control   Outer-Iter.   Inner-Iter.     Column Row Layer    Maximum-Head-Change  Column Row Layer    Maximum-Flux-Residual          L2-NORM 
          0                 1           2             4    7     1       0.1070110331E-01       4    7    1         0.5600311536E+00      0.1562370692E+01
          0                 2           2             4    7     1      -0.1040362807E-02       4    7    1        -0.5597273283E-01      0.1561887406E+00
          0                 3           1             4    7     1       0.7079142846E-04       4    7    1         0.3915125326E-02      0.1092849544E-01

    ------------------------------------------------
       NWT REQUIRED            3 OUTER ITERATIONS 
       AND A TOTAL OF          5 INNER ITERATIONS.
    ------------------------------------------------

 NO OUTPUT CONTROL FOR STRESS PERIOD   28   TIME STEP   14
 
 SOLVING FOR HEAD 
                                                   Max.-Head-Change                         Max.-Flux-Residual
  Residual-Control   Outer-Iter.   Inner-Iter.     Column Row Layer    Maximum-Head-Change  Column Row Layer    Maximum-Flux-Residual          L2-NORM 
          0                 1           2             4    7     1       0.1062470024E-01       4    7    1         0.5560179939E+00      0.1553555954E+01
          0                 2           2             4    7     1      -0.1032934864E-02       4    7    1        -0.5557163253E-01      0.1553076410E+00
          0                 3           1             4    7     1       0.7028599422E-04       4    7    1         0.3887069509E-02      0.1086678321E-01

    ------------------------------------------------
       NWT REQUIRED            3 OUTER ITERATIONS 
       AND A TOTAL OF          5 INNER ITERATIONS.
    ------------------------------------------------

 NO OUTPUT CONTROL FOR STRESS PERIOD   28   TIME STEP   15
 
 SOLVING FOR HEAD 
                                                   Max.-Head-Change                         Max.-Flux-Residual
  Residual-Control   Outer-Iter.   Inner-Iter.     Column Row Layer    Maximum-Head-Change  Column Row Layer    Maximum-Flux-Residual          L2-NORM 
          0                 1           2             4    7     1       0.1054900510E-01       4    7    1         0.5520419042E+00      0.1544830052E+01
          0                 2           2             4    7     1      -0.1025575745E-02       4    7    1        -0.5517423718E-01      0.1544354644E+00
          0                 3           1             4    7     1       0.6978524281E-04       4    7    1         0.3859272821E-02      0.1080587650E-01

    ------------------------------------------------
       NWT REQUIRED            3 OUTER ITERATIONS 
       AND A TOTAL OF          5 INNER ITERATIONS.
    ------------------------------------------------

 NO OUTPUT CONTROL FOR STRESS PERIOD   28   TIME STEP   16
 
 SOLVING FOR HEAD 
                                                   Max.-Head-Change                         Max.-Flux-Residual
  Residual-Control   Outer-Iter.   Inner-Iter.     Column Row Layer    Maximum-Head-Change  Column Row Layer    Maximum-Flux-Residual          L2-NORM 
          0                 1           2             4    7     1       0.1047414253E-01       4    7    1         0.5481098640E+00      0.1536187346E+01
          0                 2           2             4    7     1      -0.1018297571E-02       4    7    1        -0.5478124452E-01      0.1535715439E+00
          0                 3           1             4    7     1       0.6928999937E-04       4    7    1         0.3831784104E-02      0.1074543903E-01

    ------------------------------------------------
       NWT REQUIRED            3 OUTER ITERATIONS 
       AND A TOTAL OF          5 INNER ITERATIONS.
    ------------------------------------------------

 NO OUTPUT CONTROL FOR STRESS PERIOD   28   TIME STEP   17
 
 SOLVING FOR HEAD 
                                                   Max.-Head-Change                         Max.-Flux-Residual
  Residual-Control   Outer-Iter.   Inner-Iter.     Column Row Layer    Maximum-Head-Change  Column Row Layer    Maximum-Flux-Residual          L2-NORM 
          0                 1           2             4    7     1       0.1040010171E-01       4    7    1         0.5442209920E+00      0.1527634712E+01
          0                 2           2             4    7     1      -0.1011099287E-02       4    7    1        -0.5439256637E-01      0.1527166572E+00
          0                 3           1             4    7     1       0.6880019197E-04       4    7    1         0.3804597170E-02      0.1068561121E-01

    ------------------------------------------------
       NWT REQUIRED            3 OUTER ITERATIONS 
       AND A TOTAL OF          5 INNER ITERATIONS.
    ------------------------------------------------

 NO OUTPUT CONTROL FOR STRESS PERIOD   28   TIME STEP   18
 
 SOLVING FOR HEAD 
                                                   Max.-Head-Change                         Max.-Flux-Residual
  Residual-Control   Outer-Iter.   Inner-Iter.     Column Row Layer    Maximum-Head-Change  Column Row Layer    Maximum-Flux-Residual          L2-NORM 
          0                 1           2             4    7     1       0.1032686882E-01       4    7    1         0.5403747258E+00      0.1519164913E+01
          0                 2           2             4    7     1      -0.1003979551E-02       4    7    1        -0.5400814653E-01      0.1518700643E+00
          0                 3           1             4    7     1       0.6831572935E-04       4    7    1         0.3777708078E-02      0.1062629107E-01

    ------------------------------------------------
       NWT REQUIRED            3 OUTER ITERATIONS 
       AND A TOTAL OF          5 INNER ITERATIONS.
    ------------------------------------------------

 NO OUTPUT CONTROL FOR STRESS PERIOD   28   TIME STEP   19
 
 SOLVING FOR HEAD 
                                                   Max.-Head-Change                         Max.-Flux-Residual
  Residual-Control   Outer-Iter.   Inner-Iter.     Column Row Layer    Maximum-Head-Change  Column Row Layer    Maximum-Flux-Residual          L2-NORM 
          0                 1           2             4    7     1       0.1025442897E-01       4    7    1         0.5365703497E+00      0.1510778290E+01
          0                 2           2             4    7     1      -0.9969369143E-03       4    7    1        -0.5362791345E-01      0.1510316249E+00
          0                 3           1             4    7     1       0.6783651307E-04       4    7    1         0.3751111855E-02      0.1056773800E-01

    ------------------------------------------------
       NWT REQUIRED            3 OUTER ITERATIONS 
       AND A TOTAL OF          5 INNER ITERATIONS.
    ------------------------------------------------

 NO OUTPUT CONTROL FOR STRESS PERIOD   28   TIME STEP   20
 
 SOLVING FOR HEAD 
                                                   Max.-Head-Change                         Max.-Flux-Residual
  Residual-Control   Outer-Iter.   Inner-Iter.     Column Row Layer    Maximum-Head-Change  Column Row Layer    Maximum-Flux-Residual          L2-NORM 
          0                 1           2             4    7     1       0.1018276905E-01       4    7    1         0.5328070912E+00      0.1502474652E+01
          0                 2           2             4    7     1      -0.9899701033E-03       4    7    1        -0.5325178998E-01      0.1502017384E+00
          0                 3           1             4    7     1       0.6736245639E-04       4    7    1         0.3724803083E-02      0.1050961550E-01

    ------------------------------------------------
       NWT REQUIRED            3 OUTER ITERATIONS 
       AND A TOTAL OF          5 INNER ITERATIONS.
    ------------------------------------------------

 NO OUTPUT CONTROL FOR STRESS PERIOD   28   TIME STEP   21
 
 SOLVING FOR HEAD 
                                                   Max.-Head-Change                         Max.-Flux-Residual
  Residual-Control   Outer-Iter.   Inner-Iter.     Column Row Layer    Maximum-Head-Change  Column Row Layer    Maximum-Flux-Residual          L2-NORM 
          0                 1           2             4    7     1       0.1011187376E-01       4    7    1         0.5290842706E+00      0.1494247216E+01
          0                 2           2             4    7     1      -0.9830776312E-03       4    7    1        -0.5287970817E-01      0.1493793452E+00
          0                 3           1             4    7     1       0.6689345789E-04       4    7    1         0.3698777008E-02      0.1045215368E-01

    ------------------------------------------------
       NWT REQUIRED            3 OUTER ITERATIONS 
       AND A TOTAL OF          5 INNER ITERATIONS.
    ------------------------------------------------

 NO OUTPUT CONTROL FOR STRESS PERIOD   28   TIME STEP   22
 
 SOLVING FOR HEAD 
                                                   Max.-Head-Change                         Max.-Flux-Residual
  Residual-Control   Outer-Iter.   Inner-Iter.     Column Row Layer    Maximum-Head-Change  Column Row Layer    Maximum-Flux-Residual          L2-NORM 
          0                 1           2             4    7     1       0.1004160038E-01       4    7    1         0.5253937485E+00      0.1486108678E+01
          0                 2           2             4    7     1      -0.9762456213E-03       4    7    1        -0.5251085445E-01      0.1485658492E+00
          0                 3           1             4    7     1       0.6642857360E-04       4    7    1         0.3672976735E-02      0.1039522577E-01

    ------------------------------------------------
       NWT REQUIRED            3 OUTER ITERATIONS 
       AND A TOTAL OF          5 INNER ITERATIONS.
    ------------------------------------------------

 NO OUTPUT CONTROL FOR STRESS PERIOD   28   TIME STEP   23
 
 SOLVING FOR HEAD 
                                                   Max.-Head-Change                         Max.-Flux-Residual
  Residual-Control   Outer-Iter.   Inner-Iter.     Column Row Layer    Maximum-Head-Change  Column Row Layer    Maximum-Flux-Residual          L2-NORM 
          0                 1           2             4    7     1       0.9972211043E-02       4    7    1         0.5217501646E+00      0.1478041633E+01
          0                 2           2             4    7     1      -0.9694995586E-03       4    7    1        -0.5214669209E-01      0.1477594920E+00
          0                 3           1             4    7     1       0.6596953763E-04       4    7    1         0.3647504609E-02      0.1033883597E-01

    ------------------------------------------------
       NWT REQUIRED            3 OUTER ITERATIONS 
       AND A TOTAL OF          5 INNER ITERATIONS.
    ------------------------------------------------

 NO OUTPUT CONTROL FOR STRESS PERIOD   28   TIME STEP   24
 
 SOLVING FOR HEAD 
                                                   Max.-Head-Change                         Max.-Flux-Residual
  Residual-Control   Outer-Iter.   Inner-Iter.     Column Row Layer    Maximum-Head-Change  Column Row Layer    Maximum-Flux-Residual          L2-NORM 
          0                 1           2             4    7     1       0.9903550545E-02       4    7    1         0.5181450700E+00      0.1470057717E+01
          0                 2           2             4    7     1      -0.9628243547E-03       4    7    1        -0.5178637661E-01      0.1469614411E+00
          0                 3           1             4    7     1       0.6551532375E-04       4    7    1         0.3622301577E-02      0.1028295727E-01

    ------------------------------------------------
       NWT REQUIRED            3 OUTER ITERATIONS 
       AND A TOTAL OF          5 INNER ITERATIONS.
    ------------------------------------------------

 NO OUTPUT CONTROL FOR STRESS PERIOD   28   TIME STEP   25
 
 SOLVING FOR HEAD 
                                                   Max.-Head-Change                         Max.-Flux-Residual
  Residual-Control   Outer-Iter.   Inner-Iter.     Column Row Layer    Maximum-Head-Change  Column Row Layer    Maximum-Flux-Residual          L2-NORM 
          0                 1           2             4    7     1       0.9835474642E-02       4    7    1         0.5145704175E+00      0.1462148441E+01
          0                 2           2             4    7     1      -0.9562059850E-03       4    7    1        -0.5142910367E-01      0.1461708447E+00
          0                 3           1             4    7     1       0.6506497652E-04       4    7    1         0.3597311348E-02      0.1022768093E-01

    ------------------------------------------------
       NWT REQUIRED            3 OUTER ITERATIONS 
       AND A TOTAL OF          5 INNER ITERATIONS.
    ------------------------------------------------

 NO OUTPUT CONTROL FOR STRESS PERIOD   28   TIME STEP   26
 
 SOLVING FOR HEAD 
                                                   Max.-Head-Change                         Max.-Flux-Residual
  Residual-Control   Outer-Iter.   Inner-Iter.     Column Row Layer    Maximum-Head-Change  Column Row Layer    Maximum-Flux-Residual          L2-NORM 
          0                 1           2             4    7     1       0.9768248432E-02       4    7    1         0.5110407695E+00      0.1454318421E+01
          0                 2           2             4    7     1      -0.9496702239E-03       4    7    1        -0.5107632886E-01      0.1453881799E+00
          0                 3           1             4    7     1       0.6462025052E-04       4    7    1         0.3572635749E-02      0.1017292141E-01

    ------------------------------------------------
       NWT REQUIRED            3 OUTER ITERATIONS 
       AND A TOTAL OF          5 INNER ITERATIONS.
    ------------------------------------------------

 NO OUTPUT CONTROL FOR STRESS PERIOD   28   TIME STEP   27
 
 SOLVING FOR HEAD 
                                                   Max.-Head-Change                         Max.-Flux-Residual
  Residual-Control   Outer-Iter.   Inner-Iter.     Column Row Layer    Maximum-Head-Change  Column Row Layer    Maximum-Flux-Residual          L2-NORM 
          0                 1           2             4    7     1       0.9701581607E-02       4    7    1         0.5075404821E+00      0.1446550672E+01
          0                 2           2             4    7     1      -0.9431888463E-03       4    7    1        -0.5072648850E-01      0.1446117577E+00
          0                 3           1             4    7     1       0.6417922562E-04       4    7    1         0.3548165424E-02      0.1011861469E-01

    ------------------------------------------------
       NWT REQUIRED            3 OUTER ITERATIONS 
       AND A TOTAL OF          5 INNER ITERATIONS.
    ------------------------------------------------

 NO OUTPUT CONTROL FOR STRESS PERIOD   28   TIME STEP   28
 
 SOLVING FOR HEAD 
                                                   Max.-Head-Change                         Max.-Flux-Residual
  Residual-Control   Outer-Iter.   Inner-Iter.     Column Row Layer    Maximum-Head-Change  Column Row Layer    Maximum-Flux-Residual          L2-NORM 
          0                 1           2             4    7     1       0.9635742184E-02       4    7    1         0.5040838928E+00      0.1438876125E+01
          0                 2           2             4    7     1      -0.9367879092E-03       4    7    1        -0.5038101564E-01      0.1438446013E+00
          0                 3           1             4    7     1       0.6374367367E-04       4    7    1         0.3524000570E-02      0.1006494595E-01

    ------------------------------------------------
       NWT REQUIRED            3 OUTER ITERATIONS 
       AND A TOTAL OF          5 INNER ITERATIONS.
    ------------------------------------------------

 NO OUTPUT CONTROL FOR STRESS PERIOD   28   TIME STEP   29
 
 SOLVING FOR HEAD 
                                                   Max.-Head-Change                         Max.-Flux-Residual
  Residual-Control   Outer-Iter.   Inner-Iter.     Column Row Layer    Maximum-Head-Change  Column Row Layer    Maximum-Flux-Residual          L2-NORM 
          0                 1           2             4    7     1       0.9570442698E-02       4    7    1         0.5006555076E+00      0.1431264955E+01
          0                 2           2             4    7     1      -0.9304394655E-03       4    7    1        -0.5003836169E-01      0.1430838283E+00
          0                 3           1             4    7     1       0.6331169359E-04       4    7    1         0.3500032905E-02      0.1001173625E-01

    ------------------------------------------------
       NWT REQUIRED            3 OUTER ITERATIONS 
       AND A TOTAL OF          5 INNER ITERATIONS.
    ------------------------------------------------

 NO OUTPUT CONTROL FOR STRESS PERIOD   28   TIME STEP   30



 STREAM LISTING     PERIOD     28   STEP       30

 LAYER ROW COL. STREAM  RCH.  FLOW INTO     FLOW TO   FLOW OUT OF   OVRLND.     DIRECT     STREAM       STREAM     STREAM     STREAM   STREAMBED  STREAMBED
                SEG.NO.  NO.  STRM. RCH.    AQUIFER    STRM. RCH.    RUNOFF     PRECIP       ET          HEAD       DEPTH      WIDTH   CONDCTNC.   GRADIENT

   1    1    1     1     1    1.9000E+01  2.1427E-01   1.8786E+01  0.000E+00  0.000E+00  0.000E+00  1.09413E+03  1.082E+00  1.166E+01  5.249E-02  1.361E+00
   1    2    2     1     2    1.8786E+01  3.3054E-01   1.8455E+01  0.000E+00  0.000E+00  0.000E+00  1.08914E+03  1.077E+00  1.158E+01  8.107E-02  1.359E+00
   1    3    3     1     3    1.8455E+01  2.8064E-01   1.8175E+01  0.000E+00  0.000E+00  0.000E+00  1.08349E+03  1.072E+00  1.149E+01  6.892E-02  1.357E+00
   1    3    4     1     4    1.8175E+01  2.5740E-01   1.7917E+01  0.000E+00  0.000E+00  0.000E+00  1.07848E+03  1.068E+00  1.140E+01  6.328E-02  1.356E+00
   1    4    5     2     1    1.5917E+01  3.0542E-01   1.5612E+01  0.000E+00  0.000E+00  0.000E+00  1.07285E+03  9.157E-01  1.200E+01  7.800E-02  1.305E+00
   1    5    6     2     2    1.5612E+01  2.3438E-01   1.5377E+01  0.000E+00  0.000E+00  0.000E+00  1.06742E+03  9.063E-01  1.200E+01  6.000E-02  1.302E+00
   1    6    6     2     3    1.5377E+01  2.3388E-01   1.5143E+01  0.000E+00  0.000E+00  0.000E+00  1.06269E+03  8.980E-01  1.200E+01  6.000E-02  1.299E+00
   1    7    6     2     4    1.5143E+01  2.3338E-01   1.4910E+01  0.000E+00  0.000E+00  0.000E+00  1.05797E+03  8.897E-01  1.200E+01  6.000E-02  1.297E+00
   1    8    6     2     5    1.4910E+01  2.3289E-01   1.4677E+01  0.000E+00  0.000E+00  0.000E+00  1.05324E+03  8.814E-01  1.200E+01  6.000E-02  1.294E+00
   1    3    5     3     1    2.0000E+00  2.8252E-01   1.7175E+00  0.000E+00  0.000E+00  0.000E+00  1.07555E+03  1.909E+00  9.636E+00  7.227E-02  1.955E+00
   1    3    6     3     2    1.7175E+00  2.4905E-01   1.4684E+00  0.000E+00  0.000E+00  0.000E+00  1.07264E+03  1.727E+00  8.909E+00  6.682E-02  1.864E+00
   1    3    7     3     3    1.4684E+00  1.9718E-01   1.2712E+00  0.000E+00  0.000E+00  0.000E+00  1.06987E+03  1.555E+00  8.218E+00  5.547E-02  1.777E+00
   1    4    8     3     4    1.2712E+00  2.2567E-01   1.0456E+00  0.000E+00  0.000E+00  0.000E+00  1.06682E+03  1.364E+00  7.455E+00  6.709E-02  1.682E+00
   1    5    8     3     5    1.0456E+00  1.5790E-01   8.8768E-01  0.000E+00  0.000E+00  0.000E+00  1.06362E+03  1.164E+00  6.655E+00  4.991E-02  1.582E+00
   1    6    8     3     6    8.8768E-01  5.5980E-02   8.3170E-01  0.000E+00  0.000E+00  0.000E+00  1.06158E+03  1.036E+00  6.145E+00  1.844E-02  1.518E+00
   1    5   10     4     1    1.0000E+01  9.0919E-02   9.9091E+00  0.000E+00  0.000E+00  0.000E+00  1.07836E+03  6.368E-01  1.000E+01  2.500E-02  1.212E+00
   1    5    9     4     2    9.9091E+00  1.8158E-01   9.7275E+00  0.000E+00  0.000E+00  0.000E+00  1.07154E+03  6.315E-01  1.000E+01  5.000E-02  1.211E+00
   1    6    8     4     3    9.7275E+00  1.2689E-01   9.6006E+00  0.000E+00  0.000E+00  0.000E+00  1.06381E+03  6.256E-01  1.000E+01  3.500E-02  1.209E+00
   1    6    8     5     1    1.0432E+01  2.2686E-01   1.0205E+01  0.000E+00  0.000E+00  0.000E+00  1.05868E+03  6.790E-01  1.542E+01  6.166E-02  1.226E+00
   1    7    7     5     2    1.0205E+01  2.7894E-01   9.9265E+00  0.000E+00  0.000E+00  0.000E+00  1.05417E+03  6.732E-01  1.519E+01  7.594E-02  1.224E+00
   1    8    7     5     3    9.9265E+00  1.9221E-01   9.7343E+00  0.000E+00  0.000E+00  0.000E+00  1.04992E+03  6.676E-01  1.497E+01  5.241E-02  1.223E+00
   1    8    6     5     4    9.7343E+00  1.3577E-01   9.5985E+00  0.000E+00  0.000E+00  0.000E+00  1.04691E+03  6.637E-01  1.482E+01  3.706E-02  1.221E+00
   1    9    6     6     1    2.4276E+01  2.5176E-01   2.4024E+01  0.000E+00  0.000E+00  0.000E+00  1.04392E+03  1.196E+00  1.200E+01  6.000E-02  1.399E+00
   1   10    7     6     2    2.4024E+01  2.5131E-01   2.3773E+01  0.000E+00  0.000E+00  0.000E+00  1.03937E+03  1.188E+00  1.200E+01  6.000E-02  1.396E+00
   1   11    7     6     3    2.3773E+01  2.5086E-01   2.3522E+01  0.000E+00  0.000E+00  0.000E+00  1.03482E+03  1.181E+00  1.200E+01  6.000E-02  1.394E+00
   1   12    7     6     4    2.3522E+01  2.5041E-01   2.3271E+01  0.000E+00  0.000E+00  0.000E+00  1.03026E+03  1.173E+00  1.200E+01  6.000E-02  1.391E+00
   1   13    7     6     5    2.3271E+01  4.8753E-03   2.3267E+01  0.000E+00  0.000E+00  0.000E+00  1.02708E+03  1.170E+00  1.200E+01  2.400E-02  6.771E-02
   1   14    9     7     1    1.5000E+02  1.3420E+00   1.4866E+02  0.000E+00  0.000E+00  0.000E+00  1.03987E+03  2.288E+00  5.529E+01  5.593E-01  7.998E-01
   1   13    8     7     2    1.4866E+02  1.8810E+00   1.4678E+02  0.000E+00  0.000E+00  0.000E+00  1.03478E+03  2.279E+00  5.526E+01  6.148E-01  1.020E+00
   1   13    7     7     3    1.4678E+02  1.5712E+00   1.4521E+02  0.000E+00  0.000E+00  0.000E+00  1.02969E+03  2.270E+00  5.521E+01  5.584E-01  9.379E-01
   1   13    6     8     1    1.6847E+02  1.0199E+00   1.6745E+02  0.000E+00  0.000E+00  0.000E+00  1.02481E+03  2.939E+00  4.261E+01  4.342E-01  7.829E-01
   1   13    5     8     2    1.6745E+02  2.7372E-01   1.6718E+02  0.000E+00  0.000E+00  0.000E+00  1.01856E+03  2.935E+00  4.255E+01  4.336E-01  2.104E-01
   1   13    4     8     3    1.6718E+02 -2.0958E+00   1.6927E+02  0.000E+00  0.000E+00  0.000E+00  1.01232E+03  2.941E+00  4.264E+01  4.345E+00 -1.608E-01
   1   13    3     8     4    1.6927E+02 -3.4898E+00   1.7276E+02  0.000E+00  0.000E+00  0.000E+00  1.00608E+03  2.959E+00  4.290E+01  4.372E+00 -2.661E-01
   1   13    2     8     5    1.7276E+02 -2.5443E+00   1.7531E+02  0.000E+00  0.000E+00  0.000E+00  9.99853E+02  2.978E+00  4.319E+01  4.401E+00 -1.927E-01
   1   13    1     8     6    1.7531E+02 -1.9762E+00   1.7728E+02  0.000E+00  0.000E+00  0.000E+00  9.94868E+02  2.993E+00  4.339E+01  2.653E+00 -2.483E-01





UNSATURATED ZONE PACKAGE VOLUMETRIC BUDGET FOR  TIME STEP    30 STRESS PERIOD   28
  ------------------------------------------------------------------------------



     CUMULATIVE VOLUMES      L**3       RATES FOR THIS TIME STEP      L**3/T
     ------------------                 ------------------------

           IN:                                      IN:
           ---                                      ---
        INFILTRATION =   930350154.0064          INFILTRATION =           0.8475

          OUT:                                     OUT:
          ----                                     ----
              UZF ET =   853129582.7066                UZF ET =           0.7500
        UZF RECHARGE =    75864354.0216          UZF RECHARGE =           0.0001

            IN - OUT =     1356217.2781              IN - OUT =       9.7374E-02

          STORAGE:                                 STORAGE:
          --------                                 --------
      STORAGE CHANGE =     1356218.5422        STORAGE CHANGE =       9.7374E-02

 PERCENT DISCREPANCY IS DIFFERENCE BETWEEN IN-OUT MINUS CHANGE IN STORAGE
 DIVIDED BY THE AVERAGE OF IN AND OUT TIMES 100

 PERCENT DISCREPANCY =           0.00     PERCENT DISCREPANCY =           0.00






1
  VOLUMETRIC BUDGET FOR AGRICULTURAL FIELDS AT  END OF TIME STEP   30, STRESS PERIOD  28
  ------------------------------------------------------------------------------

     CUMULATIVE VOLUMES      L**3       RATES FOR THIS TIME STEP      L**3/T
     ------------------                 ------------------------

           IN:                                      IN:
           ---                                      ---
               AG WELLS  =   870094720.0000                 AG WELLS  =           0.0000
      DIVERSION SEGMENTS =           0.0000        DIVERSION SEGMENTS =           0.0000
       IRRIGATION PONDS  =           0.0000         IRRIGATION PONDS  =           0.0000
           GW IRRIGATION =           0.0000             GW IRRIGATION =           0.0000
           SW IRRIGATION =           0.0000             SW IRRIGATION =           0.0000
        SYSTEM LOSSES GW =           0.0000          SYSTEM LOSSES GW =           0.0000
        SYSTEM LOSSES SW =           0.0000          SYSTEM LOSSES SW =           0.0000

                TOTAL IN =   870094720.0000                  TOTAL IN =           0.0000

          OUT:                                     OUT:
          ----                                     ----
               AG WELLS  =           0.0000                 AG WELLS  =           0.0000
      DIVERSION SEGMENTS =           0.0000        DIVERSION SEGMENTS =           0.0000
       IRRIGATION PONDS  =           0.0000         IRRIGATION PONDS  =           0.0000
           GW IRRIGATION =   870094720.0000             GW IRRIGATION =           0.0000
           SW IRRIGATION =           0.0000             SW IRRIGATION =           0.0000
        SYSTEM LOSSES GW =           0.0000          SYSTEM LOSSES GW =           0.0000
        SYSTEM LOSSES SW =           0.0000          SYSTEM LOSSES SW =           0.0000

               TOTAL OUT =   870094720.0000                 TOTAL OUT =           0.0000

                IN - OUT =           0.0000                  IN - OUT =           0.0000

     PERCENT DISCREPANCY =           0.00         PERCENT DISCREPANCY =           0.00



1
  VOLUMETRIC BUDGET FOR ENTIRE MODEL AT END OF TIME STEP   30, STRESS PERIOD  28
  ------------------------------------------------------------------------------

     CUMULATIVE VOLUMES      L**3       RATES FOR THIS TIME STEP      L**3/T
     ------------------                 ------------------------

           IN:                                      IN:
           ---                                      ---
             STORAGE     =  1188411520.0000               STORAGE     =           4.2149
       CONSTANT HEAD     =           0.0000         CONSTANT HEAD     =           0.0000
     HEAD DEP BOUNDS     =    20300812.0000       HEAD DEP BOUNDS     =           0.2862
      STREAM LEAKAGE     =   877594048.0000        STREAM LEAKAGE     =          11.8214
        UZF RECHARGE     =    75864392.0000          UZF RECHARGE     =       1.2595E-04
               GW ET     =           0.0000                 GW ET     =           0.0000
     SURFACE LEAKAGE     =           0.0000       SURFACE LEAKAGE     =           0.0000
           AG WELLS      =           0.0000             AG WELLS      =           0.0000

                TOTAL IN =  2162170624.0000                  TOTAL IN =          16.3226

          OUT:                                     OUT:
          ----                                     ----
             STORAGE     =   517753856.0000               STORAGE     =           5.9277
       CONSTANT HEAD     =           0.0000         CONSTANT HEAD     =           0.0000
     HEAD DEP BOUNDS     =    20869104.0000       HEAD DEP BOUNDS     =           0.2893
      STREAM LEAKAGE     =   735850432.0000        STREAM LEAKAGE     =          10.1061
        UZF RECHARGE     =           0.0000          UZF RECHARGE     =           0.0000
               GW ET     =    17607784.0000                 GW ET     =           0.0000
     SURFACE LEAKAGE     =           0.0000       SURFACE LEAKAGE     =           0.0000
           AG WELLS      =   870094720.0000             AG WELLS      =           0.0000

               TOTAL OUT =  2162176000.0000                 TOTAL OUT =          16.3231

                IN - OUT =       -5376.0000                  IN - OUT =      -4.8447E-04

     PERCENT DISCREPANCY =          -0.00         PERCENT DISCREPANCY =          -0.00






         TIME SUMMARY AT END OF TIME STEP   30 IN STRESS PERIOD   28
                    SECONDS     MINUTES      HOURS       DAYS        YEARS
                    -----------------------------------------------------------
   TIME STEP LENGTH  87667.      1461.1      24.352      1.0147     2.77799E-03
 STRESS PERIOD TIME 2.63000E+06  43833.      730.56      30.440     8.33397E-02
         TOTAL TIME 7.10967E+07 1.18494E+06  19749.      822.88      2.2529    
1
1
                            STRESS PERIOD NO.   29, LENGTH =   2630000.    
                            -----------------------------------------------

                              NUMBER OF TIME STEPS =    30

                               MULTIPLIER FOR DELT =     1.000

                            INITIAL TIME STEP SIZE =   87666.66    

 REUSING NON-PARAMETER GHB CELLS FROM LAST STRESS PERIOD

      2 GHB CELLS

 REUSING STREAM SEGMENT DATA FROM LAST STRESS PERIOD



            AREAL INFILTRATION RATE
 READING ON UNIT   19 WITH FORMAT: (FREE)              

            1           2           3           4           5           6           7           8           9          10
 ........................................................................................................................
   1   1.0000E-10  2.0000E-10   0.000       0.000       0.000       0.000       0.000       0.000       0.000       0.000    
   2   2.0000E-10  1.0000E-10  2.0000E-10   0.000       0.000      8.0000E-10  8.0000E-10  5.0000E-10   0.000       0.000    
   3    0.000      5.0000E-10  1.0000E-10  1.0000E-10  8.0000E-10  8.0000E-10  5.0000E-10  5.0000E-10   0.000       0.000    
   4   8.0000E-10  5.0000E-10  1.0000E-10  1.0000E-10  1.0000E-10  1.0000E-10  1.0000E-10  1.0000E-10  2.0000E-10   0.000    
   5   8.0000E-10  5.0000E-10  1.0000E-10  1.0000E-10  1.0000E-10  1.0000E-10  1.0000E-10  1.0000E-10  1.0000E-10  1.0000E-10
   6   8.0000E-10  5.0000E-10  5.0000E-10  2.0000E-10  2.0000E-10  1.0000E-10  1.0000E-10  1.0000E-10  1.0000E-10  5.0000E-10
   7   8.0000E-10  5.0000E-10  5.0000E-10  2.0000E-10  2.0000E-10  1.0000E-10  1.0000E-10  2.0000E-10  2.0000E-10   0.000    
   8    0.000      5.0000E-10  5.0000E-10  2.0000E-10  2.0000E-10  1.0000E-10  1.0000E-10  2.0000E-10  5.0000E-10   0.000    
   9    0.000      5.0000E-10  5.0000E-10  2.0000E-10  2.0000E-10  1.0000E-10  1.0000E-10  2.0000E-10  5.0000E-10   0.000    
  10    0.000      5.0000E-10  5.0000E-10  2.0000E-10  2.0000E-10  1.0000E-10  1.0000E-10  2.0000E-10  5.0000E-10  8.0000E-10
  11    0.000      1.0000E-10  1.0000E-10  1.0000E-10  1.0000E-10  1.0000E-10  1.0000E-10  2.0000E-10  5.0000E-10   0.000    
  12   1.0000E-10  1.0000E-10  1.0000E-10  1.0000E-10  1.0000E-10  1.0000E-10  1.0000E-10  1.0000E-10  2.0000E-10   0.000    
  13   1.0000E-10  1.0000E-10  2.0000E-10  2.0000E-10  2.0000E-10  2.0000E-10  2.0000E-10  1.0000E-10  1.0000E-10   0.000    
  14    0.000      2.0000E-10  5.0000E-10  5.0000E-10  5.0000E-10  5.0000E-10  5.0000E-10  2.0000E-10  1.0000E-10   0.000    
  15    0.000       0.000      8.0000E-10  8.0000E-10  8.0000E-10  8.0000E-10   0.000       0.000       0.000       0.000    

                  ET RATE =  2.500000E-08

 USING ET EXTINCTION DEPTH FROM PREVIOUS STRESS PERIOD. CURRENT PERIOD IS:      29

 USING EXTINCTION WATER CONTENT FROM PREVIOUS STRESS PERIOD. CURRENT PERIOD IS:      29

 USING AIR ENTRY PRESSURE FROM PREVIOUS STRESS PERIOD. CURRENT PERIOD IS:      29

 USING ROOT PRESSURE HEAD FROM PREVIOUS STRESS PERIOD. CURRENT PERIOD IS:      29

 USING ROOT ACTIVITY FROM PREVIOUS STRESS PERIOD. CURRENT PERIOD IS:      29

 PROCESSING AG STRESS PERIOD DATA

 READING AG STRESS PERIOD DATA

 READING IRRIGATION WELL

 NO IRRPOND OR REUSING IRRPOND DATA FROM LAST STRESS PERIOD

 END PROCESSING AG STRESS PERIOD DATA OPTIONS
 
 SOLVING FOR HEAD 
                                                   Max.-Head-Change                         Max.-Flux-Residual
  Residual-Control   Outer-Iter.   Inner-Iter.     Column Row Layer    Maximum-Head-Change  Column Row Layer    Maximum-Flux-Residual          L2-NORM 
          0                 1           2             3    7     1       0.8375404186E-02       4    9    1         0.2782578272E+00      0.1102693802E+01
          0                 2           2             3    7     1      -0.8146986576E-03       4    9    1        -0.2782578348E-01      0.1102677459E+00
          0                 3           1             3    7     1       0.5547802698E-04       4    9    1         0.1947805676E-02      0.7718573281E-02

    ------------------------------------------------
       NWT REQUIRED            3 OUTER ITERATIONS 
       AND A TOTAL OF          5 INNER ITERATIONS.
    ------------------------------------------------

 NO OUTPUT CONTROL FOR STRESS PERIOD   29   TIME STEP    1
 
 SOLVING FOR HEAD 
                                                   Max.-Head-Change                         Max.-Flux-Residual
  Residual-Control   Outer-Iter.   Inner-Iter.     Column Row Layer    Maximum-Head-Change  Column Row Layer    Maximum-Flux-Residual          L2-NORM 
          0                 1           2             4    7     1       0.9511346985E-02       4    7    1         0.4972600520E+00      0.1424925139E+01
          0                 2           2             4    7     1      -0.1237642109E-01       4    7    1        -0.6646911684E+00      0.1614478593E+01
          0                 3           2             4    7     1       0.8417554544E-03       4    7    1         0.4647108181E-01      0.1128906940E+00
          0                 4           1             4    7     1      -0.3349424892E-04       4    7    1        -0.1900670617E-02      0.4617236393E-02

    ------------------------------------------------
       NWT REQUIRED            4 OUTER ITERATIONS 
       AND A TOTAL OF          7 INNER ITERATIONS.
    ------------------------------------------------

 NO OUTPUT CONTROL FOR STRESS PERIOD   29   TIME STEP    2
 
 SOLVING FOR HEAD 
                                                   Max.-Head-Change                         Max.-Flux-Residual
  Residual-Control   Outer-Iter.   Inner-Iter.     Column Row Layer    Maximum-Head-Change  Column Row Layer    Maximum-Flux-Residual          L2-NORM 
          0                 1           2             4    7     1       0.9520922035E-02       4    7    1         0.4974951145E+00      0.1426805083E+01
          0                 2           2             4    7     1      -0.1247015430E-01       4    7    1        -0.6696982772E+00      0.1628621174E+01
          0                 3           2             4    7     1       0.8482457902E-03       4    7    1         0.4682741535E-01      0.1138999582E+00
          0                 4           1             4    7     1      -0.3375250569E-04       4    7    1        -0.1915244686E-02      0.4658516244E-02

    ------------------------------------------------
       NWT REQUIRED            4 OUTER ITERATIONS 
       AND A TOTAL OF          7 INNER ITERATIONS.
    ------------------------------------------------

 NO OUTPUT CONTROL FOR STRESS PERIOD   29   TIME STEP    3
 
 SOLVING FOR HEAD 
                                                   Max.-Head-Change                         Max.-Flux-Residual
  Residual-Control   Outer-Iter.   Inner-Iter.     Column Row Layer    Maximum-Head-Change  Column Row Layer    Maximum-Flux-Residual          L2-NORM 
          0                 1           2             4    7     1       0.9535581831E-02       4    7    1         0.4980139067E+00      0.1429439261E+01
          0                 2           2             4    7     1      -0.1247169314E-01       4    7    1        -0.6697561897E+00      0.1630525303E+01
          0                 3           2             4    7     1       0.8484597335E-03       4    7    1         0.4683751495E-01      0.1140428679E+00
          0                 4           1             4    7     1      -0.3376101857E-04       4    7    1        -0.1915657757E-02      0.4664360875E-02

    ------------------------------------------------
       NWT REQUIRED            4 OUTER ITERATIONS 
       AND A TOTAL OF          7 INNER ITERATIONS.
    ------------------------------------------------

 NO OUTPUT CONTROL FOR STRESS PERIOD   29   TIME STEP    4
 
 SOLVING FOR HEAD 
                                                   Max.-Head-Change                         Max.-Flux-Residual
  Residual-Control   Outer-Iter.   Inner-Iter.     Column Row Layer    Maximum-Head-Change  Column Row Layer    Maximum-Flux-Residual          L2-NORM 
          0                 1           2             4    7     1       0.9554495848E-02       4    7    1         0.4987739735E+00      0.1432641023E+01
          0                 2           2             4    7     1      -0.1247364117E-01       4    7    1        -0.6698381871E+00      0.1632347767E+01
          0                 3           2             4    7     1       0.8486968259E-03       4    7    1         0.4684925032E-01      0.1141737056E+00
          0                 4           1             4    7     1      -0.3377045293E-04       4    7    1        -0.1916137739E-02      0.4669711621E-02

    ------------------------------------------------
       NWT REQUIRED            4 OUTER ITERATIONS 
       AND A TOTAL OF          7 INNER ITERATIONS.
    ------------------------------------------------

 NO OUTPUT CONTROL FOR STRESS PERIOD   29   TIME STEP    5
 
 SOLVING FOR HEAD 
                                                   Max.-Head-Change                         Max.-Flux-Residual
  Residual-Control   Outer-Iter.   Inner-Iter.     Column Row Layer    Maximum-Head-Change  Column Row Layer    Maximum-Flux-Residual          L2-NORM 
          0                 1           2             4    7     1       0.9577279420E-02       4    7    1         0.4997546068E+00      0.1436313370E+01
          0                 2           2             4    7     1      -0.1247590947E-01       4    7    1        -0.6699391149E+00      0.1634095740E+01
          0                 3           2             4    7     1       0.8489010305E-03       4    7    1         0.4685918413E-01      0.1142972351E+00
          0                 4           1             4    7     1      -0.3377857817E-04       4    7    1        -0.1916544035E-02      0.4674765223E-02

    ------------------------------------------------
       NWT REQUIRED            4 OUTER ITERATIONS 
       AND A TOTAL OF          7 INNER ITERATIONS.
    ------------------------------------------------

 NO OUTPUT CONTROL FOR STRESS PERIOD   29   TIME STEP    6
 
 SOLVING FOR HEAD 
                                                   Max.-Head-Change                         Max.-Flux-Residual
  Residual-Control   Outer-Iter.   Inner-Iter.     Column Row Layer    Maximum-Head-Change  Column Row Layer    Maximum-Flux-Residual          L2-NORM 
          0                 1           2             4    7     1       0.9603708738E-02       4    7    1         0.5009432169E+00      0.1440362594E+01
          0                 2           2             4    7     1      -0.1247848136E-01       4    7    1        -0.6700579724E+00      0.1635772715E+01
          0                 3           2             4    7     1       0.8490761736E-03       4    7    1         0.4686750466E-01      0.1144146164E+00
          0                 4           1             4    7     1      -0.3378554742E-04       4    7    1        -0.1916884334E-02      0.4679566905E-02

    ------------------------------------------------
       NWT REQUIRED            4 OUTER ITERATIONS 
       AND A TOTAL OF          7 INNER ITERATIONS.
    ------------------------------------------------

 NO OUTPUT CONTROL FOR STRESS PERIOD   29   TIME STEP    7
 
 SOLVING FOR HEAD 
                                                   Max.-Head-Change                         Max.-Flux-Residual
  Residual-Control   Outer-Iter.   Inner-Iter.     Column Row Layer    Maximum-Head-Change  Column Row Layer    Maximum-Flux-Residual          L2-NORM 
          0                 1           2             4    7     1       0.9633439458E-02       4    7    1         0.5023208520E+00      0.1444721907E+01
          0                 2           2             4    7     1      -0.1248137445E-01       4    7    1        -0.6701957327E+00      0.1637384168E+01
          0                 3           2             4    7     1       0.8492731887E-03       4    7    1         0.4687714831E-01      0.1145274139E+00
          0                 4           1             4    7     1      -0.3379338658E-04       4    7    1        -0.1917278749E-02      0.4684179821E-02

    ------------------------------------------------
       NWT REQUIRED            4 OUTER ITERATIONS 
       AND A TOTAL OF          7 INNER ITERATIONS.
    ------------------------------------------------

 NO OUTPUT CONTROL FOR STRESS PERIOD   29   TIME STEP    8
 
 SOLVING FOR HEAD 
                                                   Max.-Head-Change                         Max.-Flux-Residual
  Residual-Control   Outer-Iter.   Inner-Iter.     Column Row Layer    Maximum-Head-Change  Column Row Layer    Maximum-Flux-Residual          L2-NORM 
          0                 1           2             4    7     1       0.9665877803E-02       4    7    1         0.5038549633E+00      0.1449314207E+01
          0                 2           2             4    7     1      -0.1248453098E-01       4    7    1        -0.6703491410E+00      0.1638931775E+01
          0                 3           2             4    7     1       0.8494881426E-03       4    7    1         0.4688788730E-01      0.1146357331E+00
          0                 4           1             4    7     1      -0.3380193987E-04       4    7    1        -0.1917717971E-02      0.4688609832E-02

    ------------------------------------------------
       NWT REQUIRED            4 OUTER ITERATIONS 
       AND A TOTAL OF          7 INNER ITERATIONS.
    ------------------------------------------------

 NO OUTPUT CONTROL FOR STRESS PERIOD   29   TIME STEP    9
 
 SOLVING FOR HEAD 
                                                   Max.-Head-Change                         Max.-Flux-Residual
  Residual-Control   Outer-Iter.   Inner-Iter.     Column Row Layer    Maximum-Head-Change  Column Row Layer    Maximum-Flux-Residual          L2-NORM 
          0                 1           2             4    7     1       0.9701007278E-02       4    8    1         0.5072026253E+00      0.1454096256E+01
          0                 2           2             4    7     1      -0.1248794934E-01       4    8    1        -0.6706840079E+00      0.1640419153E+01
          0                 3           2             4    7     1       0.8497209249E-03       4    8    1         0.4691104958E-01      0.1147398523E+00
          0                 4           1             4    7     1      -0.3381120223E-04       4    8    1        -0.1918666600E-02      0.4692868409E-02

    ------------------------------------------------
       NWT REQUIRED            4 OUTER ITERATIONS 
       AND A TOTAL OF          7 INNER ITERATIONS.
    ------------------------------------------------

 NO OUTPUT CONTROL FOR STRESS PERIOD   29   TIME STEP   10
 
 SOLVING FOR HEAD 
                                                   Max.-Head-Change                         Max.-Flux-Residual
  Residual-Control   Outer-Iter.   Inner-Iter.     Column Row Layer    Maximum-Head-Change  Column Row Layer    Maximum-Flux-Residual          L2-NORM 
          0                 1           2             4    8     1       0.9772182322E-02       4    8    1         0.5127327333E+00      0.1459018381E+01
          0                 2           2             4    7     1      -0.1249160175E-01       4    8    1        -0.6712370265E+00      0.1641848465E+01
          0                 3           2             4    7     1       0.8499696444E-03       4    8    1         0.4694975982E-01      0.1148398990E+00
          0                 4           1             4    7     1      -0.3382109894E-04       4    8    1        -0.1920249856E-02      0.4696986877E-02

    ------------------------------------------------
       NWT REQUIRED            4 OUTER ITERATIONS 
       AND A TOTAL OF          7 INNER ITERATIONS.
    ------------------------------------------------

 NO OUTPUT CONTROL FOR STRESS PERIOD   29   TIME STEP   11
 
 SOLVING FOR HEAD 
                                                   Max.-Head-Change                         Max.-Flux-Residual
  Residual-Control   Outer-Iter.   Inner-Iter.     Column Row Layer    Maximum-Head-Change  Column Row Layer    Maximum-Flux-Residual          L2-NORM 
          0                 1           2             4    8     1       0.9871323340E-02       4    8    1         0.5180709830E+00      0.1464029649E+01
          0                 2           2             4    7     1      -0.1249544938E-01       4    8    1        -0.6717708592E+00      0.1643222009E+01
          0                 3           2             4    7     1       0.8502316581E-03       4    8    1         0.4698712705E-01      0.1149360434E+00
          0                 4           1             4    7     1      -0.3383152501E-04       4    8    1        -0.1921778187E-02      0.4700892100E-02

    ------------------------------------------------
       NWT REQUIRED            4 OUTER ITERATIONS 
       AND A TOTAL OF          7 INNER ITERATIONS.
    ------------------------------------------------

 NO OUTPUT CONTROL FOR STRESS PERIOD   29   TIME STEP   12
 
 SOLVING FOR HEAD 
                                                   Max.-Head-Change                         Max.-Flux-Residual
  Residual-Control   Outer-Iter.   Inner-Iter.     Column Row Layer    Maximum-Head-Change  Column Row Layer    Maximum-Flux-Residual          L2-NORM 
          0                 1           2             4    8     1       0.9966906379E-02       4    8    1         0.5232176410E+00      0.1469113503E+01
          0                 2           2             4    7     1      -0.1249948234E-01       4    8    1        -0.6722855325E+00      0.1644543360E+01
          0                 3           2             4    7     1       0.8505062905E-03       4    8    1         0.4702315318E-01      0.1150285339E+00
          0                 4           1             4    7     1      -0.3384245269E-04       4    8    1        -0.1923251661E-02      0.4704677712E-02

    ------------------------------------------------
       NWT REQUIRED            4 OUTER ITERATIONS 
       AND A TOTAL OF          7 INNER ITERATIONS.
    ------------------------------------------------

 NO OUTPUT CONTROL FOR STRESS PERIOD   29   TIME STEP   13
 
 SOLVING FOR HEAD 
                                                   Max.-Head-Change                         Max.-Flux-Residual
  Residual-Control   Outer-Iter.   Inner-Iter.     Column Row Layer    Maximum-Head-Change  Column Row Layer    Maximum-Flux-Residual          L2-NORM 
          0                 1           2             4    8     1       0.1005918365E-01       4    8    1         0.5281862906E+00      0.1474225440E+01
          0                 2           2             4    7     1      -0.1250367769E-01       4    8    1        -0.6727824047E+00      0.1645813891E+01
          0                 3           2             4    7     1       0.8507919806E-03       4    8    1         0.4705793327E-01      0.1151174658E+00
          0                 4           1             4    7     1      -0.3385382039E-04       4    8    1        -0.1924674171E-02      0.4708313277E-02

    ------------------------------------------------
       NWT REQUIRED            4 OUTER ITERATIONS 
       AND A TOTAL OF          7 INNER ITERATIONS.
    ------------------------------------------------

 NO OUTPUT CONTROL FOR STRESS PERIOD   29   TIME STEP   14
 
 SOLVING FOR HEAD 
                                                   Max.-Head-Change                         Max.-Flux-Residual
  Residual-Control   Outer-Iter.   Inner-Iter.     Column Row Layer    Maximum-Head-Change  Column Row Layer    Maximum-Flux-Residual          L2-NORM 
          0                 1           2             4    8     1       0.1014815508E-01       4    8    1         0.5329770832E+00      0.1479334335E+01
          0                 2           2             4    7     1      -0.1250800148E-01       4    8    1        -0.6732614911E+00      0.1647035282E+01
          0                 3           2             4    7     1       0.8510864172E-03       4    8    1         0.4709146837E-01      0.1152029598E+00
          0                 4           1             4    7     1      -0.3386553647E-04       4    8    1        -0.1926045774E-02      0.4711818441E-02

    ------------------------------------------------
       NWT REQUIRED            4 OUTER ITERATIONS 
       AND A TOTAL OF          7 INNER ITERATIONS.
    ------------------------------------------------

 NO OUTPUT CONTROL FOR STRESS PERIOD   29   TIME STEP   15
 
 SOLVING FOR HEAD 
                                                   Max.-Head-Change                         Max.-Flux-Residual
  Residual-Control   Outer-Iter.   Inner-Iter.     Column Row Layer    Maximum-Head-Change  Column Row Layer    Maximum-Flux-Residual          L2-NORM 
          0                 1           2             4    8     1       0.1023394968E-01       4    8    1         0.5375964776E+00      0.1484431980E+01
          0                 2           2             4    7     1      -0.1251244809E-01       4    8    1        -0.6737234375E+00      0.1648210718E+01
          0                 3           2             4    7     1       0.8513892164E-03       4    8    1         0.4712380371E-01      0.1152852385E+00
          0                 4           1             4    7     1      -0.3387758538E-04       4    8    1        -0.1927368296E-02      0.4715174875E-02

    ------------------------------------------------
       NWT REQUIRED            4 OUTER ITERATIONS 
       AND A TOTAL OF          7 INNER ITERATIONS.
    ------------------------------------------------

 NO OUTPUT CONTROL FOR STRESS PERIOD   29   TIME STEP   16
 
 SOLVING FOR HEAD 
                                                   Max.-Head-Change                         Max.-Flux-Residual
  Residual-Control   Outer-Iter.   Inner-Iter.     Column Row Layer    Maximum-Head-Change  Column Row Layer    Maximum-Flux-Residual          L2-NORM 
          0                 1           2             4    8     1       0.1031680375E-01       4    8    1         0.5420576247E+00      0.1489498166E+01
          0                 2           2             4    7     1      -0.1251698627E-01       4    8    1        -0.6741695590E+00      0.1649341351E+01
          0                 3           2             4    7     1       0.8516982511E-03       4    8    1         0.4715503134E-01      0.1153643805E+00
          0                 4           1             4    7     1      -0.3388988216E-04       4    8    1        -0.1928645498E-02      0.4718411675E-02

    ------------------------------------------------
       NWT REQUIRED            4 OUTER ITERATIONS 
       AND A TOTAL OF          7 INNER ITERATIONS.
    ------------------------------------------------

 NO OUTPUT CONTROL FOR STRESS PERIOD   29   TIME STEP   17
 
 SOLVING FOR HEAD 
                                                   Max.-Head-Change                         Max.-Flux-Residual
  Residual-Control   Outer-Iter.   Inner-Iter.     Column Row Layer    Maximum-Head-Change  Column Row Layer    Maximum-Flux-Residual          L2-NORM 
          0                 1           2             4    8     1       0.1039671045E-01       5    8    1         0.5465457676E+00      0.1494515447E+01
          0                 2           2             4    7     1      -0.1252161317E-01       5    8    1        -0.6746183927E+00      0.1650429805E+01
          0                 3           2             4    7     1       0.8520133264E-03       5    8    1         0.4718655225E-01      0.1154405683E+00
          0                 4           1             4    7     1      -0.3390241921E-04       5    8    1        -0.1929934243E-02      0.4721527536E-02

    ------------------------------------------------
       NWT REQUIRED            4 OUTER ITERATIONS 
       AND A TOTAL OF          7 INNER ITERATIONS.
    ------------------------------------------------

 NO OUTPUT CONTROL FOR STRESS PERIOD   29   TIME STEP   18
 
 SOLVING FOR HEAD 
                                                   Max.-Head-Change                         Max.-Flux-Residual
  Residual-Control   Outer-Iter.   Inner-Iter.     Column Row Layer    Maximum-Head-Change  Column Row Layer    Maximum-Flux-Residual          L2-NORM 
          0                 1           2             4    8     1       0.1047378494E-01       5    8    1         0.5521086492E+00      0.1499473768E+01
          0                 2           2             4    7     1      -0.1252631313E-01       5    8    1        -0.6751746873E+00      0.1651477639E+01
          0                 3           2             4    7     1       0.8523333761E-03       5    8    1         0.4722549225E-01      0.1155139124E+00
          0                 4           1             4    7     1      -0.3391515405E-04       5    8    1        -0.1931526900E-02      0.4724525038E-02

    ------------------------------------------------
       NWT REQUIRED            4 OUTER ITERATIONS 
       AND A TOTAL OF          7 INNER ITERATIONS.
    ------------------------------------------------

 NO OUTPUT CONTROL FOR STRESS PERIOD   29   TIME STEP   19
 
 SOLVING FOR HEAD 
                                                   Max.-Head-Change                         Max.-Flux-Residual
  Residual-Control   Outer-Iter.   Inner-Iter.     Column Row Layer    Maximum-Head-Change  Column Row Layer    Maximum-Flux-Residual          L2-NORM 
          0                 1           2             4    8     1       0.1054813617E-01       5    8    1         0.5573638028E+00      0.1504360212E+01
          0                 2           2             4    7     1      -0.1253107165E-01       5    8    1        -0.6757002087E+00      0.1652486397E+01
          0                 3           2             4    7     1       0.8526574141E-03       5    8    1         0.4726227815E-01      0.1155845239E+00
          0                 4           1             4    7     1      -0.3392804799E-04       5    8    1        -0.1933031435E-02      0.4727414317E-02

    ------------------------------------------------
       NWT REQUIRED            4 OUTER ITERATIONS 
       AND A TOTAL OF          7 INNER ITERATIONS.
    ------------------------------------------------

 NO OUTPUT CONTROL FOR STRESS PERIOD   29   TIME STEP   20
 
 SOLVING FOR HEAD 
                                                   Max.-Head-Change                         Max.-Flux-Residual
  Residual-Control   Outer-Iter.   Inner-Iter.     Column Row Layer    Maximum-Head-Change  Column Row Layer    Maximum-Flux-Residual          L2-NORM 
          0                 1           2             4    8     1       0.1061986737E-01       5    8    1         0.5623311239E+00      0.1509162365E+01
          0                 2           2             4    7     1      -0.1253586244E-01       5    8    1        -0.6761969464E+00      0.1653457433E+01
          0                 3           2             4    7     1       0.8529836483E-03       5    8    1         0.4729704924E-01      0.1156524915E+00
          0                 4           1             4    7     1      -0.3394102909E-04       5    8    1        -0.1934453584E-02      0.4730194977E-02

    ------------------------------------------------
       NWT REQUIRED            4 OUTER ITERATIONS 
       AND A TOTAL OF          7 INNER ITERATIONS.
    ------------------------------------------------

 NO OUTPUT CONTROL FOR STRESS PERIOD   29   TIME STEP   21
 
 SOLVING FOR HEAD 
                                                   Max.-Head-Change                         Max.-Flux-Residual
  Residual-Control   Outer-Iter.   Inner-Iter.     Column Row Layer    Maximum-Head-Change  Column Row Layer    Maximum-Flux-Residual          L2-NORM 
          0                 1           2             4    8     1       0.1068919858E-01       5    8    1         0.5670367379E+00      0.1513882547E+01
          0                 2           2             4    7     1      -0.1254068734E-01       5    8    1        -0.6766675131E+00      0.1654393285E+01
          0                 3           2             4    7     1       0.8533122055E-03       5    8    1         0.4732998842E-01      0.1157180006E+00
          0                 4           1             4    7     1      -0.3395410240E-04       5    8    1        -0.1935800797E-02      0.4732874465E-02

    ------------------------------------------------
       NWT REQUIRED            4 OUTER ITERATIONS 
       AND A TOTAL OF          7 INNER ITERATIONS.
    ------------------------------------------------

 NO OUTPUT CONTROL FOR STRESS PERIOD   29   TIME STEP   22
 
 SOLVING FOR HEAD 
                                                   Max.-Head-Change                         Max.-Flux-Residual
  Residual-Control   Outer-Iter.   Inner-Iter.     Column Row Layer    Maximum-Head-Change  Column Row Layer    Maximum-Flux-Residual          L2-NORM 
          0                 1           2             4    8     1       0.1075598523E-01       5    8    1         0.5714892287E+00      0.1518507837E+01
          0                 2           2             4    7     1      -0.1254553472E-01       5    8    1        -0.6771127672E+00      0.1655294394E+01
          0                 3           2             4    7     1       0.8513942771E-03       5    8    1         0.4736115572E-01      0.1157189848E+00
          0                 4           1             4    7     1      -0.3387777971E-04       5    8    1        -0.1937075534E-02      0.4732913843E-02

    ------------------------------------------------
       NWT REQUIRED            4 OUTER ITERATIONS 
       AND A TOTAL OF          7 INNER ITERATIONS.
    ------------------------------------------------

 NO OUTPUT CONTROL FOR STRESS PERIOD   29   TIME STEP   23
 
 SOLVING FOR HEAD 
                                                   Max.-Head-Change                         Max.-Flux-Residual
  Residual-Control   Outer-Iter.   Inner-Iter.     Column Row Layer    Maximum-Head-Change  Column Row Layer    Maximum-Flux-Residual          L2-NORM 
          0                 1           2             4    8     1       0.1082053629E-01       5    8    1         0.5757044598E+00      0.1523000549E+01
          0                 2           2             4    7     1      -0.1255061322E-01       5    8    1        -0.6775342950E+00      0.1656167454E+01
          0                 3           2             4    8     1       0.8481678131E-03       5    8    1         0.4739066223E-01      0.1156957299E+00
          0                 4           1             4    8     1      -0.3374936903E-04       5    8    1        -0.1938282374E-02      0.4731965537E-02

    ------------------------------------------------
       NWT REQUIRED            4 OUTER ITERATIONS 
       AND A TOTAL OF          7 INNER ITERATIONS.
    ------------------------------------------------

 NO OUTPUT CONTROL FOR STRESS PERIOD   29   TIME STEP   24
 
 SOLVING FOR HEAD 
                                                   Max.-Head-Change                         Max.-Flux-Residual
  Residual-Control   Outer-Iter.   Inner-Iter.     Column Row Layer    Maximum-Head-Change  Column Row Layer    Maximum-Flux-Residual          L2-NORM 
          0                 1           2             5    8     1       0.1088397956E-01       5    8    1         0.5797048857E+00      0.1527372754E+01
          0                 2           2             4    7     1      -0.1256122354E-01       5    8    1        -0.6779343421E+00      0.1656985525E+01
          0                 3           2             4    7     1       0.8547116849E-03       5    8    1         0.4741866511E-01      0.1158994894E+00
          0                 4           1             4    7     1      -0.3400978249E-04       5    8    1        -0.1939427683E-02      0.4740299681E-02

    ------------------------------------------------
       NWT REQUIRED            4 OUTER ITERATIONS 
       AND A TOTAL OF          7 INNER ITERATIONS.
    ------------------------------------------------

 NO OUTPUT CONTROL FOR STRESS PERIOD   29   TIME STEP   25
 
 SOLVING FOR HEAD 
                                                   Max.-Head-Change                         Max.-Flux-Residual
  Residual-Control   Outer-Iter.   Inner-Iter.     Column Row Layer    Maximum-Head-Change  Column Row Layer    Maximum-Flux-Residual          L2-NORM 
          0                 1           2             5    8     1       0.1095300745E-01       5    8    1         0.5834879066E+00      0.1531649631E+01
          0                 2           2             4    7     1      -0.1256575679E-01       5    8    1        -0.6783126483E+00      0.1657784444E+01
          0                 3           2             4    7     1       0.8550203842E-03       5    8    1         0.4744514615E-01      0.1159554118E+00
          0                 4           1             4    7     1      -0.3402206591E-04       5    8    1        -0.1940510781E-02      0.4742583542E-02

    ------------------------------------------------
       NWT REQUIRED            4 OUTER ITERATIONS 
       AND A TOTAL OF          7 INNER ITERATIONS.
    ------------------------------------------------

 NO OUTPUT CONTROL FOR STRESS PERIOD   29   TIME STEP   26
 
 SOLVING FOR HEAD 
                                                   Max.-Head-Change                         Max.-Flux-Residual
  Residual-Control   Outer-Iter.   Inner-Iter.     Column Row Layer    Maximum-Head-Change  Column Row Layer    Maximum-Flux-Residual          L2-NORM 
          0                 1           2             5    8     1       0.1101861972E-01       5    8    1         0.5870826697E+00      0.1535820715E+01
          0                 2           2             4    7     1      -0.1257030184E-01       5    8    1        -0.6786721285E+00      0.1658554332E+01
          0                 3           2             4    7     1       0.8553298866E-03       5    8    1         0.4747030941E-01      0.1160093029E+00
          0                 4           1             4    7     1      -0.3403438134E-04       5    8    1        -0.1941539935E-02      0.4744789045E-02

    ------------------------------------------------
       NWT REQUIRED            4 OUTER ITERATIONS 
       AND A TOTAL OF          7 INNER ITERATIONS.
    ------------------------------------------------

 NO OUTPUT CONTROL FOR STRESS PERIOD   29   TIME STEP   27
 
 SOLVING FOR HEAD 
                                                   Max.-Head-Change                         Max.-Flux-Residual
  Residual-Control   Outer-Iter.   Inner-Iter.     Column Row Layer    Maximum-Head-Change  Column Row Layer    Maximum-Flux-Residual          L2-NORM 
          0                 1           2             5    8     1       0.1108073989E-01       5    8    1         0.5904846129E+00      0.1539879770E+01
          0                 2           2             4    7     1      -0.1257483648E-01       5    8    1        -0.6790123265E+00      0.1659295895E+01
          0                 3           2             4    7     1       0.8556386810E-03       5    8    1         0.4749412294E-01      0.1160612100E+00
          0                 4           1             4    7     1      -0.3404666879E-04       5    8    1        -0.1942513930E-02      0.4746912426E-02

    ------------------------------------------------
       NWT REQUIRED            4 OUTER ITERATIONS 
       AND A TOTAL OF          7 INNER ITERATIONS.
    ------------------------------------------------

 NO OUTPUT CONTROL FOR STRESS PERIOD   29   TIME STEP   28
 
 SOLVING FOR HEAD 
                                                   Max.-Head-Change                         Max.-Flux-Residual
  Residual-Control   Outer-Iter.   Inner-Iter.     Column Row Layer    Maximum-Head-Change  Column Row Layer    Maximum-Flux-Residual          L2-NORM 
          0                 1           2             5    8     1       0.1113985383E-01       5    8    1         0.5937212207E+00      0.1543840396E+01
          0                 2           2             4    7     1      -0.1257936640E-01       5    8    1        -0.6793359907E+00      0.1660011621E+01
          0                 3           2             4    7     1       0.8559471525E-03       5    8    1         0.4751677912E-01      0.1161113093E+00
          0                 4           1             4    7     1      -0.3405894289E-04       5    8    1        -0.1943440559E-02      0.4748961112E-02

    ------------------------------------------------
       NWT REQUIRED            4 OUTER ITERATIONS 
       AND A TOTAL OF          7 INNER ITERATIONS.
    ------------------------------------------------

 NO OUTPUT CONTROL FOR STRESS PERIOD   29   TIME STEP   29
 
 SOLVING FOR HEAD 
                                                   Max.-Head-Change                         Max.-Flux-Residual
  Residual-Control   Outer-Iter.   Inner-Iter.     Column Row Layer    Maximum-Head-Change  Column Row Layer    Maximum-Flux-Residual          L2-NORM 
          0                 1           2             5    8     1       0.1119585926E-01       5    8    1         0.5967862347E+00      0.1547693371E+01
          0                 2           2             4    7     1      -0.1258388431E-01       5    8    1        -0.6796424954E+00      0.1660701774E+01
          0                 3           2             4    7     1       0.8562548069E-03       5    8    1         0.4753823415E-01      0.1161596172E+00
          0                 4           1             4    7     1      -0.3407118499E-04       5    8    1        -0.1944318068E-02      0.4750966720E-02

    ------------------------------------------------
       NWT REQUIRED            4 OUTER ITERATIONS 
       AND A TOTAL OF          7 INNER ITERATIONS.
    ------------------------------------------------

 NO OUTPUT CONTROL FOR STRESS PERIOD   29   TIME STEP   30



 STREAM LISTING     PERIOD     29   STEP       30

 LAYER ROW COL. STREAM  RCH.  FLOW INTO     FLOW TO   FLOW OUT OF   OVRLND.     DIRECT     STREAM       STREAM     STREAM     STREAM   STREAMBED  STREAMBED
                SEG.NO.  NO.  STRM. RCH.    AQUIFER    STRM. RCH.    RUNOFF     PRECIP       ET          HEAD       DEPTH      WIDTH   CONDCTNC.   GRADIENT

   1    1    1     1     1    1.9000E+01  2.1427E-01   1.8786E+01  0.000E+00  0.000E+00  0.000E+00  1.09413E+03  1.082E+00  1.166E+01  5.249E-02  1.361E+00
   1    2    2     1     2    1.8786E+01  3.3054E-01   1.8455E+01  0.000E+00  0.000E+00  0.000E+00  1.08914E+03  1.077E+00  1.158E+01  8.107E-02  1.359E+00
   1    3    3     1     3    1.8455E+01  2.8064E-01   1.8175E+01  0.000E+00  0.000E+00  0.000E+00  1.08349E+03  1.072E+00  1.149E+01  6.892E-02  1.357E+00
   1    3    4     1     4    1.8175E+01  2.5740E-01   1.7917E+01  0.000E+00  0.000E+00  0.000E+00  1.07848E+03  1.068E+00  1.140E+01  6.328E-02  1.356E+00
   1    4    5     2     1    1.5917E+01  3.0542E-01   1.5612E+01  0.000E+00  0.000E+00  0.000E+00  1.07285E+03  9.157E-01  1.200E+01  7.800E-02  1.305E+00
   1    5    6     2     2    1.5612E+01  2.3438E-01   1.5377E+01  0.000E+00  0.000E+00  0.000E+00  1.06742E+03  9.063E-01  1.200E+01  6.000E-02  1.302E+00
   1    6    6     2     3    1.5377E+01  2.3388E-01   1.5143E+01  0.000E+00  0.000E+00  0.000E+00  1.06269E+03  8.980E-01  1.200E+01  6.000E-02  1.299E+00
   1    7    6     2     4    1.5143E+01  2.3338E-01   1.4910E+01  0.000E+00  0.000E+00  0.000E+00  1.05797E+03  8.897E-01  1.200E+01  6.000E-02  1.297E+00
   1    8    6     2     5    1.4910E+01  2.3289E-01   1.4677E+01  0.000E+00  0.000E+00  0.000E+00  1.05324E+03  8.814E-01  1.200E+01  6.000E-02  1.294E+00
   1    3    5     3     1    2.0000E+00  2.8252E-01   1.7175E+00  0.000E+00  0.000E+00  0.000E+00  1.07555E+03  1.909E+00  9.636E+00  7.227E-02  1.955E+00
   1    3    6     3     2    1.7175E+00  2.4905E-01   1.4684E+00  0.000E+00  0.000E+00  0.000E+00  1.07264E+03  1.727E+00  8.909E+00  6.682E-02  1.864E+00
   1    3    7     3     3    1.4684E+00  1.9718E-01   1.2712E+00  0.000E+00  0.000E+00  0.000E+00  1.06987E+03  1.555E+00  8.218E+00  5.547E-02  1.777E+00
   1    4    8     3     4    1.2712E+00  2.2567E-01   1.0456E+00  0.000E+00  0.000E+00  0.000E+00  1.06682E+03  1.364E+00  7.455E+00  6.709E-02  1.682E+00
   1    5    8     3     5    1.0456E+00  1.5790E-01   8.8768E-01  0.000E+00  0.000E+00  0.000E+00  1.06362E+03  1.164E+00  6.655E+00  4.991E-02  1.582E+00
   1    6    8     3     6    8.8768E-01  5.5980E-02   8.3170E-01  0.000E+00  0.000E+00  0.000E+00  1.06158E+03  1.036E+00  6.145E+00  1.844E-02  1.518E+00
   1    5   10     4     1    1.0000E+01  9.0919E-02   9.9091E+00  0.000E+00  0.000E+00  0.000E+00  1.07836E+03  6.368E-01  1.000E+01  2.500E-02  1.212E+00
   1    5    9     4     2    9.9091E+00  1.8158E-01   9.7275E+00  0.000E+00  0.000E+00  0.000E+00  1.07154E+03  6.315E-01  1.000E+01  5.000E-02  1.211E+00
   1    6    8     4     3    9.7275E+00  1.2689E-01   9.6006E+00  0.000E+00  0.000E+00  0.000E+00  1.06381E+03  6.256E-01  1.000E+01  3.500E-02  1.209E+00
   1    6    8     5     1    1.0432E+01  2.2686E-01   1.0205E+01  0.000E+00  0.000E+00  0.000E+00  1.05868E+03  6.790E-01  1.542E+01  6.166E-02  1.226E+00
   1    7    7     5     2    1.0205E+01  2.7894E-01   9.9265E+00  0.000E+00  0.000E+00  0.000E+00  1.05417E+03  6.732E-01  1.519E+01  7.594E-02  1.224E+00
   1    8    7     5     3    9.9265E+00  1.9221E-01   9.7343E+00  0.000E+00  0.000E+00  0.000E+00  1.04992E+03  6.676E-01  1.497E+01  5.241E-02  1.223E+00
   1    8    6     5     4    9.7343E+00  1.3577E-01   9.5985E+00  0.000E+00  0.000E+00  0.000E+00  1.04691E+03  6.637E-01  1.482E+01  3.706E-02  1.221E+00
   1    9    6     6     1    2.4276E+01  2.5176E-01   2.4024E+01  0.000E+00  0.000E+00  0.000E+00  1.04392E+03  1.196E+00  1.200E+01  6.000E-02  1.399E+00
   1   10    7     6     2    2.4024E+01  2.5131E-01   2.3773E+01  0.000E+00  0.000E+00  0.000E+00  1.03937E+03  1.188E+00  1.200E+01  6.000E-02  1.396E+00
   1   11    7     6     3    2.3773E+01  2.5086E-01   2.3522E+01  0.000E+00  0.000E+00  0.000E+00  1.03482E+03  1.181E+00  1.200E+01  6.000E-02  1.394E+00
   1   12    7     6     4    2.3522E+01  2.5041E-01   2.3271E+01  0.000E+00  0.000E+00  0.000E+00  1.03026E+03  1.173E+00  1.200E+01  6.000E-02  1.391E+00
   1   13    7     6     5    2.3271E+01  5.4231E-03   2.3266E+01  0.000E+00  0.000E+00  0.000E+00  1.02708E+03  1.170E+00  1.200E+01  2.400E-02  7.532E-02
   1   14    9     7     1    1.5000E+02  1.3438E+00   1.4866E+02  0.000E+00  0.000E+00  0.000E+00  1.03987E+03  2.288E+00  5.529E+01  5.593E-01  8.009E-01
   1   13    8     7     2    1.4866E+02  1.8888E+00   1.4677E+02  0.000E+00  0.000E+00  0.000E+00  1.03478E+03  2.279E+00  5.526E+01  6.148E-01  1.024E+00
   1   13    7     7     3    1.4677E+02  1.5839E+00   1.4518E+02  0.000E+00  0.000E+00  0.000E+00  1.02969E+03  2.270E+00  5.521E+01  5.584E-01  9.455E-01
   1   13    6     8     1    1.6845E+02  1.0305E+00   1.6742E+02  0.000E+00  0.000E+00  0.000E+00  1.02481E+03  2.939E+00  4.261E+01  4.342E-01  7.910E-01
   1   13    5     8     2    1.6742E+02  2.8152E-01   1.6714E+02  0.000E+00  0.000E+00  0.000E+00  1.01856E+03  2.934E+00  4.255E+01  4.336E-01  2.164E-01
   1   13    4     8     3    1.6714E+02 -2.0744E+00   1.6921E+02  0.000E+00  0.000E+00  0.000E+00  1.01232E+03  2.940E+00  4.263E+01  4.345E+00 -1.592E-01
   1   13    3     8     4    1.6921E+02 -3.4761E+00   1.7269E+02  0.000E+00  0.000E+00  0.000E+00  1.00608E+03  2.958E+00  4.290E+01  4.371E+00 -2.651E-01
   1   13    2     8     5    1.7269E+02 -2.5396E+00   1.7523E+02  0.000E+00  0.000E+00  0.000E+00  9.99853E+02  2.978E+00  4.318E+01  4.400E+00 -1.924E-01
   1   13    1     8     6    1.7523E+02 -1.9746E+00   1.7720E+02  0.000E+00  0.000E+00  0.000E+00  9.94867E+02  2.992E+00  4.339E+01  2.653E+00 -2.481E-01





UNSATURATED ZONE PACKAGE VOLUMETRIC BUDGET FOR  TIME STEP    30 STRESS PERIOD   29
  ------------------------------------------------------------------------------



     CUMULATIVE VOLUMES      L**3       RATES FOR THIS TIME STEP      L**3/T
     ------------------                 ------------------------

           IN:                                      IN:
           ---                                      ---
        INFILTRATION =   942362690.1328          INFILTRATION =           4.5675

          OUT:                                     OUT:
          ----                                     ----
              UZF ET =   866424231.8560                UZF ET =           4.5675
        UZF RECHARGE =    75864354.0216          UZF RECHARGE =       0.0000E+00

            IN - OUT =       74104.2552              IN - OUT =       0.0000E+00

          STORAGE:                                 STORAGE:
          --------                                 --------
      STORAGE CHANGE =       74105.5023        STORAGE CHANGE =      -3.7909E-12

 PERCENT DISCREPANCY IS DIFFERENCE BETWEEN IN-OUT MINUS CHANGE IN STORAGE
 DIVIDED BY THE AVERAGE OF IN AND OUT TIMES 100

 PERCENT DISCREPANCY =           0.00     PERCENT DISCREPANCY =           0.00






1
  VOLUMETRIC BUDGET FOR AGRICULTURAL FIELDS AT  END OF TIME STEP   30, STRESS PERIOD  29
  ------------------------------------------------------------------------------

     CUMULATIVE VOLUMES      L**3       RATES FOR THIS TIME STEP      L**3/T
     ------------------                 ------------------------

           IN:                                      IN:
           ---                                      ---
               AG WELLS  =   879879040.0000                 AG WELLS  =           3.7200
      DIVERSION SEGMENTS =           0.0000        DIVERSION SEGMENTS =           0.0000
       IRRIGATION PONDS  =           0.0000         IRRIGATION PONDS  =           0.0000
           GW IRRIGATION =           0.0000             GW IRRIGATION =           0.0000
           SW IRRIGATION =           0.0000             SW IRRIGATION =           0.0000
        SYSTEM LOSSES GW =           0.0000          SYSTEM LOSSES GW =           0.0000
        SYSTEM LOSSES SW =           0.0000          SYSTEM LOSSES SW =           0.0000

                TOTAL IN =   879879040.0000                  TOTAL IN =           3.7200

          OUT:                                     OUT:
          ----                                     ----
               AG WELLS  =           0.0000                 AG WELLS  =           0.0000
      DIVERSION SEGMENTS =           0.0000        DIVERSION SEGMENTS =           0.0000
       IRRIGATION PONDS  =           0.0000         IRRIGATION PONDS  =           0.0000
           GW IRRIGATION =   879879040.0000             GW IRRIGATION =           3.7200
           SW IRRIGATION =           0.0000             SW IRRIGATION =           0.0000
        SYSTEM LOSSES GW =           0.0000          SYSTEM LOSSES GW =           0.0000
        SYSTEM LOSSES SW =           0.0000          SYSTEM LOSSES SW =           0.0000

               TOTAL OUT =   879879040.0000                 TOTAL OUT =           3.7200

                IN - OUT =           0.0000                  IN - OUT =           0.0000

     PERCENT DISCREPANCY =           0.00         PERCENT DISCREPANCY =           0.00



1
  VOLUMETRIC BUDGET FOR ENTIRE MODEL AT END OF TIME STEP   30, STRESS PERIOD  29
  ------------------------------------------------------------------------------

     CUMULATIVE VOLUMES      L**3       RATES FOR THIS TIME STEP      L**3/T
     ------------------                 ------------------------

           IN:                                      IN:
           ---                                      ---
             STORAGE     =  1200225152.0000               STORAGE     =           3.8508
       CONSTANT HEAD     =           0.0000         CONSTANT HEAD     =           0.0000
     HEAD DEP BOUNDS     =    21053632.0000       HEAD DEP BOUNDS     =           0.2863
      STREAM LEAKAGE     =   908741760.0000        STREAM LEAKAGE     =          11.8625
        UZF RECHARGE     =    75864392.0000          UZF RECHARGE     =           0.0000
               GW ET     =           0.0000                 GW ET     =           0.0000
     SURFACE LEAKAGE     =           0.0000       SURFACE LEAKAGE     =           0.0000
           AG WELLS      =           0.0000             AG WELLS      =           0.0000

                TOTAL IN =  2205884928.0000                  TOTAL IN =          15.9997

          OUT:                                     OUT:
          ----                                     ----
             STORAGE     =   524403136.0000               STORAGE     =           1.9256
       CONSTANT HEAD     =           0.0000         CONSTANT HEAD     =           0.0000
     HEAD DEP BOUNDS     =    21629854.0000       HEAD DEP BOUNDS     =           0.2892
      STREAM LEAKAGE     =   762370816.0000        STREAM LEAKAGE     =          10.0647
        UZF RECHARGE     =           0.0000          UZF RECHARGE     =           0.0000
               GW ET     =    17607784.0000                 GW ET     =           0.0000
     SURFACE LEAKAGE     =           0.0000       SURFACE LEAKAGE     =           0.0000
           AG WELLS      =   879879040.0000             AG WELLS      =           3.7200

               TOTAL OUT =  2205890560.0000                 TOTAL OUT =          15.9995

                IN - OUT =       -5632.0000                  IN - OUT =       1.4591E-04

     PERCENT DISCREPANCY =          -0.00         PERCENT DISCREPANCY =           0.00






         TIME SUMMARY AT END OF TIME STEP   30 IN STRESS PERIOD   29
                    SECONDS     MINUTES      HOURS       DAYS        YEARS
                    -----------------------------------------------------------
   TIME STEP LENGTH  87667.      1461.1      24.352      1.0147     2.77799E-03
 STRESS PERIOD TIME 2.63000E+06  43833.      730.56      30.440     8.33397E-02
         TOTAL TIME 7.37266E+07 1.22878E+06  20480.      853.32      2.3363    
1
1
                            STRESS PERIOD NO.   30, LENGTH =   2630000.    
                            -----------------------------------------------

                              NUMBER OF TIME STEPS =    30

                               MULTIPLIER FOR DELT =     1.000

                            INITIAL TIME STEP SIZE =   87666.66    

 REUSING NON-PARAMETER GHB CELLS FROM LAST STRESS PERIOD

      2 GHB CELLS

 REUSING STREAM SEGMENT DATA FROM LAST STRESS PERIOD



            AREAL INFILTRATION RATE
 READING ON UNIT   19 WITH FORMAT: (FREE)              

            1           2           3           4           5           6           7           8           9          10
 ........................................................................................................................
   1   1.0000E-10  2.0000E-10   0.000       0.000       0.000       0.000       0.000       0.000       0.000       0.000    
   2   2.0000E-10  1.0000E-10  2.0000E-10   0.000       0.000      8.0000E-10  8.0000E-10  5.0000E-10   0.000       0.000    
   3    0.000      5.0000E-10  1.0000E-10  1.0000E-10  8.0000E-10  8.0000E-10  5.0000E-10  5.0000E-10   0.000       0.000    
   4   8.0000E-10  5.0000E-10  1.0000E-10  1.0000E-10  1.0000E-10  1.0000E-10  1.0000E-10  1.0000E-10  2.0000E-10   0.000    
   5   8.0000E-10  5.0000E-10  1.0000E-10  1.0000E-10  1.0000E-10  1.0000E-10  1.0000E-10  1.0000E-10  1.0000E-10  1.0000E-10
   6   8.0000E-10  5.0000E-10  5.0000E-10  2.0000E-10  2.0000E-10  1.0000E-10  1.0000E-10  1.0000E-10  1.0000E-10  5.0000E-10
   7   8.0000E-10  5.0000E-10  5.0000E-10  2.0000E-10  2.0000E-10  1.0000E-10  1.0000E-10  2.0000E-10  2.0000E-10   0.000    
   8    0.000      5.0000E-10  5.0000E-10  2.0000E-10  2.0000E-10  1.0000E-10  1.0000E-10  2.0000E-10  5.0000E-10   0.000    
   9    0.000      5.0000E-10  5.0000E-10  2.0000E-10  2.0000E-10  1.0000E-10  1.0000E-10  2.0000E-10  5.0000E-10   0.000    
  10    0.000      5.0000E-10  5.0000E-10  2.0000E-10  2.0000E-10  1.0000E-10  1.0000E-10  2.0000E-10  5.0000E-10  8.0000E-10
  11    0.000      1.0000E-10  1.0000E-10  1.0000E-10  1.0000E-10  1.0000E-10  1.0000E-10  2.0000E-10  5.0000E-10   0.000    
  12   1.0000E-10  1.0000E-10  1.0000E-10  1.0000E-10  1.0000E-10  1.0000E-10  1.0000E-10  1.0000E-10  2.0000E-10   0.000    
  13   1.0000E-10  1.0000E-10  2.0000E-10  2.0000E-10  2.0000E-10  2.0000E-10  2.0000E-10  1.0000E-10  1.0000E-10   0.000    
  14    0.000      2.0000E-10  5.0000E-10  5.0000E-10  5.0000E-10  5.0000E-10  5.0000E-10  2.0000E-10  1.0000E-10   0.000    
  15    0.000       0.000      8.0000E-10  8.0000E-10  8.0000E-10  8.0000E-10   0.000       0.000       0.000       0.000    

                  ET RATE =  5.000000E-08

 USING ET EXTINCTION DEPTH FROM PREVIOUS STRESS PERIOD. CURRENT PERIOD IS:      30

 USING EXTINCTION WATER CONTENT FROM PREVIOUS STRESS PERIOD. CURRENT PERIOD IS:      30

 USING AIR ENTRY PRESSURE FROM PREVIOUS STRESS PERIOD. CURRENT PERIOD IS:      30

 USING ROOT PRESSURE HEAD FROM PREVIOUS STRESS PERIOD. CURRENT PERIOD IS:      30

 USING ROOT ACTIVITY FROM PREVIOUS STRESS PERIOD. CURRENT PERIOD IS:      30

 PROCESSING AG STRESS PERIOD DATA

 READING AG STRESS PERIOD DATA

 READING IRRIGATION WELL

 NO IRRPOND OR REUSING IRRPOND DATA FROM LAST STRESS PERIOD

 END PROCESSING AG STRESS PERIOD DATA OPTIONS
 
 SOLVING FOR HEAD 
                                                   Max.-Head-Change                         Max.-Flux-Residual
  Residual-Control   Outer-Iter.   Inner-Iter.     Column Row Layer    Maximum-Head-Change  Column Row Layer    Maximum-Flux-Residual          L2-NORM 
          0                 1           2             4    7     1      -0.1327344063E-01       4    7    1        -0.6950989685E+00      0.1764450512E+01
          0                 2           2             4    7     1       0.1291143178E-02       4    7    1         0.6950986149E-01      0.1764440243E+00
          0                 3           1             4    7     1      -0.8792206944E-04       4    7    1        -0.4865692745E-02      0.1235103797E-01

    ------------------------------------------------
       NWT REQUIRED            3 OUTER ITERATIONS 
       AND A TOTAL OF          5 INNER ITERATIONS.
    ------------------------------------------------

 NO OUTPUT CONTROL FOR STRESS PERIOD   30   TIME STEP    1
 
 SOLVING FOR HEAD 
                                                   Max.-Head-Change                         Max.-Flux-Residual
  Residual-Control   Outer-Iter.   Inner-Iter.     Column Row Layer    Maximum-Head-Change  Column Row Layer    Maximum-Flux-Residual          L2-NORM 
          0                 1           2             5    8     1       0.1163000762E-01       5    8    1         0.6206523118E+00      0.1577757498E+01
          0                 2           2             4    7     1      -0.2415033432E-01       5    8    1        -0.1302029192E+01      0.3182984578E+01
          0                 3           2             4    7     1       0.1644086568E-02       5    8    1         0.9111555597E-01      0.2227456182E+00
          0                 4           1             4    7     1      -0.6541976041E-04       5    8    1        -0.3726637240E-02      0.9110323165E-02

    ------------------------------------------------
       NWT REQUIRED            4 OUTER ITERATIONS 
       AND A TOTAL OF          7 INNER ITERATIONS.
    ------------------------------------------------

 NO OUTPUT CONTROL FOR STRESS PERIOD   30   TIME STEP    2
 
 SOLVING FOR HEAD 
                                                   Max.-Head-Change                         Max.-Flux-Residual
  Residual-Control   Outer-Iter.   Inner-Iter.     Column Row Layer    Maximum-Head-Change  Column Row Layer    Maximum-Flux-Residual          L2-NORM 
          0                 1           2             5    8     1       0.1198472887E-01       5    8    1         0.6401492814E+00      0.1603683222E+01
          0                 2           2             4    7     1      -0.2425471200E-01       5    8    1        -0.1308989997E+01      0.3198602491E+01
          0                 3           2             4    7     1       0.1651194299E-02       5    8    1         0.9160279796E-01      0.2238388565E+00
          0                 4           1             4    7     1      -0.6570258368E-04       5    8    1        -0.3746565533E-02      0.9155749667E-02

    ------------------------------------------------
       NWT REQUIRED            4 OUTER ITERATIONS 
       AND A TOTAL OF          7 INNER ITERATIONS.
    ------------------------------------------------

 NO OUTPUT CONTROL FOR STRESS PERIOD   30   TIME STEP    3
 
 SOLVING FOR HEAD 
                                                   Max.-Head-Change                         Max.-Flux-Residual
  Residual-Control   Outer-Iter.   Inner-Iter.     Column Row Layer    Maximum-Head-Change  Column Row Layer    Maximum-Flux-Residual          L2-NORM 
          0                 1           2             5    8     1       0.1232299433E-01       5    8    1         0.6587275561E+00      0.1629667338E+01
          0                 2           2             4    7     1      -0.2426616536E-01       5    8    1        -0.1310847850E+01      0.3201857179E+01
          0                 3           2             4    7     1       0.1651974256E-02       5    8    1         0.9173284313E-01      0.2240666819E+00
          0                 4           1             4    7     1      -0.6573361862E-04       5    8    1        -0.3751884429E-02      0.9164346639E-02

    ------------------------------------------------
       NWT REQUIRED            4 OUTER ITERATIONS 
       AND A TOTAL OF          7 INNER ITERATIONS.
    ------------------------------------------------

 NO OUTPUT CONTROL FOR STRESS PERIOD   30   TIME STEP    4
 
 SOLVING FOR HEAD 
                                                   Max.-Head-Change                         Max.-Flux-Residual
  Residual-Control   Outer-Iter.   Inner-Iter.     Column Row Layer    Maximum-Head-Change  Column Row Layer    Maximum-Flux-Residual          L2-NORM 
          0                 1           2             5    8     1       0.1264328861E-01       5    8    1         0.6763049374E+00      0.1655412794E+01
          0                 2           2             4    7     1      -0.2427797346E-01       5    8    1        -0.1312605613E+01      0.3205002268E+01
          0                 3           2             4    7     1       0.1652778366E-02       5    8    1         0.9185588227E-01      0.2242868346E+00
          0                 4           1             4    7     1      -0.6576561489E-04       5    8    1        -0.3756916753E-02      0.9173351178E-02

    ------------------------------------------------
       NWT REQUIRED            4 OUTER ITERATIONS 
       AND A TOTAL OF          7 INNER ITERATIONS.
    ------------------------------------------------

 NO OUTPUT CONTROL FOR STRESS PERIOD   30   TIME STEP    5
 
 SOLVING FOR HEAD 
                                                   Max.-Head-Change                         Max.-Flux-Residual
  Residual-Control   Outer-Iter.   Inner-Iter.     Column Row Layer    Maximum-Head-Change  Column Row Layer    Maximum-Flux-Residual          L2-NORM 
          0                 1           2             5    8     1       0.1294683888E-01       5    8    1         0.6929505555E+00      0.1680835783E+01
          0                 2           2             4    7     1      -0.2429008038E-01       5    8    1        -0.1314270199E+01      0.3208042183E+01
          0                 3           2             4    7     1       0.1653602823E-02       5    8    1         0.9197239929E-01      0.2244996251E+00
          0                 4           1             4    7     1      -0.6579842084E-04       5    8    1        -0.3761682310E-02      0.9182053736E-02

    ------------------------------------------------
       NWT REQUIRED            4 OUTER ITERATIONS 
       AND A TOTAL OF          7 INNER ITERATIONS.
    ------------------------------------------------

 NO OUTPUT CONTROL FOR STRESS PERIOD   30   TIME STEP    6
 
 SOLVING FOR HEAD 
                                                   Max.-Head-Change                         Max.-Flux-Residual
  Residual-Control   Outer-Iter.   Inner-Iter.     Column Row Layer    Maximum-Head-Change  Column Row Layer    Maximum-Flux-Residual          L2-NORM 
          0                 1           2             5    8     1       0.1323463448E-01       5    8    1         0.7087201746E+00      0.1705876087E+01
          0                 2           2             4    7     1      -0.2430247234E-01       5    8    1        -0.1315847183E+01      0.3210981328E+01
          0                 3           2             4    7     1       0.1654446689E-02       5    8    1         0.9208278448E-01      0.2247053626E+00
          0                 4           1             4    7     1      -0.6583199896E-04       5    8    1        -0.3766197091E-02      0.9190468681E-02

    ------------------------------------------------
       NWT REQUIRED            4 OUTER ITERATIONS 
       AND A TOTAL OF          7 INNER ITERATIONS.
    ------------------------------------------------

 NO OUTPUT CONTROL FOR STRESS PERIOD   30   TIME STEP    7
 
 SOLVING FOR HEAD 
                                                   Max.-Head-Change                         Max.-Flux-Residual
  Residual-Control   Outer-Iter.   Inner-Iter.     Column Row Layer    Maximum-Head-Change  Column Row Layer    Maximum-Flux-Residual          L2-NORM 
          0                 1           2             5    8     1       0.1350787671E-01       5    8    1         0.7236808124E+00      0.1730490196E+01
          0                 2           2             4    7     1      -0.2431508540E-01       5    8    1        -0.1317343268E+01      0.3213824557E+01
          0                 3           2             4    7     1       0.1655305608E-02       5    8    1         0.9218750697E-01      0.2249043869E+00
          0                 4           1             4    7     1      -0.6586617574E-04       5    8    1        -0.3770480264E-02      0.9198610125E-02

    ------------------------------------------------
       NWT REQUIRED            4 OUTER ITERATIONS 
       AND A TOTAL OF          7 INNER ITERATIONS.
    ------------------------------------------------

 NO OUTPUT CONTROL FOR STRESS PERIOD   30   TIME STEP    8
 
 SOLVING FOR HEAD 
                                                   Max.-Head-Change                         Max.-Flux-Residual
  Residual-Control   Outer-Iter.   Inner-Iter.     Column Row Layer    Maximum-Head-Change  Column Row Layer    Maximum-Flux-Residual          L2-NORM 
          0                 1           2             5    8     1       0.1376724919E-01       5    8    1         0.7378711704E+00      0.1754640227E+01
          0                 2           2             4    7     1      -0.2432791120E-01       5    8    1        -0.1318762325E+01      0.3216575885E+01
          0                 3           2             4    7     1       0.1656179013E-02       5    8    1         0.9228683767E-01      0.2250969766E+00
          0                 4           1             4    7     1      -0.6590092977E-04       5    8    1        -0.3774542918E-02      0.9206486436E-02

    ------------------------------------------------
       NWT REQUIRED            4 OUTER ITERATIONS 
       AND A TOTAL OF          7 INNER ITERATIONS.
    ------------------------------------------------

 NO OUTPUT CONTROL FOR STRESS PERIOD   30   TIME STEP    9
 
 SOLVING FOR HEAD 
                                                   Max.-Head-Change                         Max.-Flux-Residual
  Residual-Control   Outer-Iter.   Inner-Iter.     Column Row Layer    Maximum-Head-Change  Column Row Layer    Maximum-Flux-Residual          L2-NORM 
          0                 1           2             5    8     1       0.1401395032E-01       5    8    1         0.7513581368E+00      0.1778299767E+01
          0                 2           2             4    7     1      -0.2434089059E-01       5    8    1        -0.1320111041E+01      0.3219238992E+01
          0                 3           2             4    7     1       0.1656981132E-02       5    8    1         0.9238124474E-01      0.2251261649E+00
          0                 4           1             4    7     1      -0.6593284636E-04       5    8    1        -0.3778404200E-02      0.9207679079E-02

    ------------------------------------------------
       NWT REQUIRED            4 OUTER ITERATIONS 
       AND A TOTAL OF          7 INNER ITERATIONS.
    ------------------------------------------------

 NO OUTPUT CONTROL FOR STRESS PERIOD   30   TIME STEP   10
 
 SOLVING FOR HEAD 
                                                   Max.-Head-Change                         Max.-Flux-Residual
  Residual-Control   Outer-Iter.   Inner-Iter.     Column Row Layer    Maximum-Head-Change  Column Row Layer    Maximum-Flux-Residual          L2-NORM 
          0                 1           2             5    8     1       0.1424843212E-01       5    8    1         0.7641676506E+00      0.1801331909E+01
          0                 2           2             4    7     1      -0.2435399152E-01       5    8    1        -0.1321392011E+01      0.3221804963E+01
          0                 3           2             4    7     1       0.1657776871E-02       5    8    1         0.9247090977E-01      0.2251461679E+00
          0                 4           1             4    7     1      -0.6596450979E-04       5    8    1        -0.3782071518E-02      0.9208498371E-02

    ------------------------------------------------
       NWT REQUIRED            4 OUTER ITERATIONS 
       AND A TOTAL OF          7 INNER ITERATIONS.
    ------------------------------------------------

 NO OUTPUT CONTROL FOR STRESS PERIOD   30   TIME STEP   11
 
 SOLVING FOR HEAD 
                                                   Max.-Head-Change                         Max.-Flux-Residual
  Residual-Control   Outer-Iter.   Inner-Iter.     Column Row Layer    Maximum-Head-Change  Column Row Layer    Maximum-Flux-Residual          L2-NORM 
          0                 1           2             5    8     1       0.1447138340E-01       5    8    1         0.7763431603E+00      0.1823821074E+01
          0                 2           2             4    7     1      -0.2436737396E-01       5    8    1        -0.1322609580E+01      0.3224284896E+01
          0                 3           2             4    7     1       0.1658866400E-02       5    8    1         0.9255613747E-01      0.2256340225E+00
          0                 4           1             4    7     1      -0.6600786270E-04       5    8    1        -0.3785557325E-02      0.9228406340E-02

    ------------------------------------------------
       NWT REQUIRED            4 OUTER ITERATIONS 
       AND A TOTAL OF          7 INNER ITERATIONS.
    ------------------------------------------------

 NO OUTPUT CONTROL FOR STRESS PERIOD   30   TIME STEP   12
 
 SOLVING FOR HEAD 
                                                   Max.-Head-Change                         Max.-Flux-Residual
  Residual-Control   Outer-Iter.   Inner-Iter.     Column Row Layer    Maximum-Head-Change  Column Row Layer    Maximum-Flux-Residual          L2-NORM 
          0                 1           2             5    8     1       0.1468378068E-01       5    8    1         0.7879339114E+00      0.1845794665E+01
          0                 2           2             4    7     1      -0.2438064892E-01       5    8    1        -0.1323768672E+01      0.3226689673E+01
          0                 3           2             4    7     1       0.1659770384E-02       5    8    1         0.9263727139E-01      0.2257940865E+00
          0                 4           1             4    7     1      -0.6604383282E-04       5    8    1        -0.3788875726E-02      0.9234762741E-02

    ------------------------------------------------
       NWT REQUIRED            4 OUTER ITERATIONS 
       AND A TOTAL OF          7 INNER ITERATIONS.
    ------------------------------------------------

 NO OUTPUT CONTROL FOR STRESS PERIOD   30   TIME STEP   13
 
 SOLVING FOR HEAD 
                                                   Max.-Head-Change                         Max.-Flux-Residual
  Residual-Control   Outer-Iter.   Inner-Iter.     Column Row Layer    Maximum-Head-Change  Column Row Layer    Maximum-Flux-Residual          L2-NORM 
          0                 1           2             5    8     1       0.1488630761E-01       5    8    1         0.7989774681E+00      0.1867255444E+01
          0                 2           2             4    7     1      -0.2439398972E-01       5    8    1        -0.1324873044E+01      0.3229021415E+01
          0                 3           2             4    7     1       0.1660678850E-02       5    8    1         0.9271457507E-01      0.2259572091E+00
          0                 4           1             4    7     1      -0.6607998139E-04       5    8    1        -0.3792037459E-02      0.9241370310E-02

    ------------------------------------------------
       NWT REQUIRED            4 OUTER ITERATIONS 
       AND A TOTAL OF          7 INNER ITERATIONS.
    ------------------------------------------------

 NO OUTPUT CONTROL FOR STRESS PERIOD   30   TIME STEP   14
 
 SOLVING FOR HEAD 
                                                   Max.-Head-Change                         Max.-Flux-Residual
  Residual-Control   Outer-Iter.   Inner-Iter.     Column Row Layer    Maximum-Head-Change  Column Row Layer    Maximum-Flux-Residual          L2-NORM 
          0                 1           2             5    8     1       0.1507930102E-01       5    8    1         0.8094935498E+00      0.1888186173E+01
          0                 2           2             4    7     1      -0.2440734788E-01       5    8    1        -0.1325924667E+01      0.3231281526E+01
          0                 3           2             4    7     1       0.1661588498E-02       5    8    1         0.9278818648E-01      0.2261153531E+00
          0                 4           1             4    7     1      -0.6611617751E-04       5    8    1        -0.3795048165E-02      0.9247786222E-02

    ------------------------------------------------
       NWT REQUIRED            4 OUTER ITERATIONS 
       AND A TOTAL OF          7 INNER ITERATIONS.
    ------------------------------------------------

 NO OUTPUT CONTROL FOR STRESS PERIOD   30   TIME STEP   15
 
 SOLVING FOR HEAD 
                                                   Max.-Head-Change                         Max.-Flux-Residual
  Residual-Control   Outer-Iter.   Inner-Iter.     Column Row Layer    Maximum-Head-Change  Column Row Layer    Maximum-Flux-Residual          L2-NORM 
          0                 1           2             5    8     1       0.1526350260E-01       5    8    1         0.8195232011E+00      0.1908596801E+01
          0                 2           2             4    7     1      -0.2442071736E-01       5    8    1        -0.1326927647E+01      0.3233473212E+01
          0                 3           2             4    7     1       0.1662498915E-02       5    8    1         0.9285839300E-01      0.2262687352E+00
          0                 4           1             4    7     1      -0.6615240333E-04       5    8    1        -0.3797919635E-02      0.9254011010E-02

    ------------------------------------------------
       NWT REQUIRED            4 OUTER ITERATIONS 
       AND A TOTAL OF          7 INNER ITERATIONS.
    ------------------------------------------------

 NO OUTPUT CONTROL FOR STRESS PERIOD   30   TIME STEP   16
 
 SOLVING FOR HEAD 
                                                   Max.-Head-Change                         Max.-Flux-Residual
  Residual-Control   Outer-Iter.   Inner-Iter.     Column Row Layer    Maximum-Head-Change  Column Row Layer    Maximum-Flux-Residual          L2-NORM 
          0                 1           2             5    8     1       0.1543946058E-01       5    8    1         0.8290970173E+00      0.1928510365E+01
          0                 2           2             4    7     1      -0.2443409325E-01       5    8    1        -0.1327885043E+01      0.3235600958E+01
          0                 3           2             4    7     1       0.1663409769E-02       5    8    1         0.9291681099E-01      0.2264145861E+00
          0                 4           1             4    7     1      -0.6618864734E-04       5    8    1        -0.3799474672E-02      0.9259879507E-02

    ------------------------------------------------
       NWT REQUIRED            4 OUTER ITERATIONS 
       AND A TOTAL OF          7 INNER ITERATIONS.
    ------------------------------------------------

 NO OUTPUT CONTROL FOR STRESS PERIOD   30   TIME STEP   17
 
 SOLVING FOR HEAD 
                                                   Max.-Head-Change                         Max.-Flux-Residual
  Residual-Control   Outer-Iter.   Inner-Iter.     Column Row Layer    Maximum-Head-Change  Column Row Layer    Maximum-Flux-Residual          L2-NORM 
          0                 1           2             5    8     1       0.1560753835E-01       5    8    1         0.8382354902E+00      0.1947912510E+01
          0                 2           2             4    7     1      -0.2444743187E-01       5    8    1        -0.1328798903E+01      0.3237665026E+01
          0                 3           2             4    7     1       0.1664318083E-02       5    8    1         0.9297344259E-01      0.2265562986E+00
          0                 4           1             4    7     1      -0.6622478981E-04       5    8    1        -0.3801079432E-02      0.9265556112E-02

    ------------------------------------------------
       NWT REQUIRED            4 OUTER ITERATIONS 
       AND A TOTAL OF          7 INNER ITERATIONS.
    ------------------------------------------------

 NO OUTPUT CONTROL FOR STRESS PERIOD   30   TIME STEP   18
 
 SOLVING FOR HEAD 
                                                   Max.-Head-Change                         Max.-Flux-Residual
  Residual-Control   Outer-Iter.   Inner-Iter.     Column Row Layer    Maximum-Head-Change  Column Row Layer    Maximum-Flux-Residual          L2-NORM 
          0                 1           2             5    8     1       0.1576835807E-01       5    8    1         0.8469732633E+00      0.1966829569E+01
          0                 2           2             4    7     1      -0.2446074464E-01       5    8    1        -0.1329672693E+01      0.3239669463E+01
          0                 3           2             4    7     1       0.1665224636E-02       5    8    1         0.9303493955E-01      0.2266944498E+00
          0                 4           1             4    7     1      -0.6626086239E-04       5    8    1        -0.3803627022E-02      0.9271101017E-02

    ------------------------------------------------
       NWT REQUIRED            4 OUTER ITERATIONS 
       AND A TOTAL OF          7 INNER ITERATIONS.
    ------------------------------------------------

 NO OUTPUT CONTROL FOR STRESS PERIOD   30   TIME STEP   19
 
 SOLVING FOR HEAD 
                                                   Max.-Head-Change                         Max.-Flux-Residual
  Residual-Control   Outer-Iter.   Inner-Iter.     Column Row Layer    Maximum-Head-Change  Column Row Layer    Maximum-Flux-Residual          L2-NORM 
          0                 1           2             5    8     1       0.1592221773E-01       5    8    1         0.8553269274E+00      0.1985264065E+01
          0                 2           2             4    7     1      -0.2447399084E-01       5    8    1        -0.1330508072E+01      0.3241615846E+01
          0                 3           2             4    7     1       0.1666126655E-02       5    8    1         0.9309373021E-01      0.2268307005E+00
          0                 4           1             4    7     1      -0.6629675469E-04       5    8    1        -0.3806062181E-02      0.9276617486E-02

    ------------------------------------------------
       NWT REQUIRED            4 OUTER ITERATIONS 
       AND A TOTAL OF          7 INNER ITERATIONS.
    ------------------------------------------------

 NO OUTPUT CONTROL FOR STRESS PERIOD   30   TIME STEP   20
 
 SOLVING FOR HEAD 
                                                   Max.-Head-Change                         Max.-Flux-Residual
  Residual-Control   Outer-Iter.   Inner-Iter.     Column Row Layer    Maximum-Head-Change  Column Row Layer    Maximum-Flux-Residual          L2-NORM 
          0                 1           2             5    8     1       0.1606967794E-01       5    8    1         0.8633275889E+00      0.2003232121E+01
          0                 2           2             4    7     1      -0.2448718441E-01       5    8    1        -0.1331308149E+01      0.3243507218E+01
          0                 3           2             4    7     1       0.1667025090E-02       5    8    1         0.9315003271E-01      0.2269632410E+00
          0                 4           1             4    7     1      -0.6633250434E-04       5    8    1        -0.3808393938E-02      0.9286538731E-02

    ------------------------------------------------
       NWT REQUIRED            4 OUTER ITERATIONS 
       AND A TOTAL OF          7 INNER ITERATIONS.
    ------------------------------------------------

 NO OUTPUT CONTROL FOR STRESS PERIOD   30   TIME STEP   21
 
 SOLVING FOR HEAD 
                                                   Max.-Head-Change                         Max.-Flux-Residual
  Residual-Control   Outer-Iter.   Inner-Iter.     Column Row Layer    Maximum-Head-Change  Column Row Layer    Maximum-Flux-Residual          L2-NORM 
          0                 1           2             5    8     1       0.1621097182E-01       5    8    1         0.8709885941E+00      0.2020735663E+01
          0                 2           2             4    7     1      -0.2450028662E-01       5    8    1        -0.1332074261E+01      0.3245344480E+01
          0                 3           2             4    7     1       0.1667917302E-02       5    8    1         0.9320394193E-01      0.2270917808E+00
          0                 4           1             4    7     1      -0.6636800624E-04       5    8    1        -0.3810626290E-02      0.9287202012E-02

    ------------------------------------------------
       NWT REQUIRED            4 OUTER ITERATIONS 
       AND A TOTAL OF          7 INNER ITERATIONS.
    ------------------------------------------------

 NO OUTPUT CONTROL FOR STRESS PERIOD   30   TIME STEP   22
 
 SOLVING FOR HEAD 
                                                   Max.-Head-Change                         Max.-Flux-Residual
  Residual-Control   Outer-Iter.   Inner-Iter.     Column Row Layer    Maximum-Head-Change  Column Row Layer    Maximum-Flux-Residual          L2-NORM 
          0                 1           2             5    8     1       0.1634632183E-01       5    8    1         0.8783220298E+00      0.2037795375E+01
          0                 2           2             4    7     1      -0.2451331392E-01       5    8    1        -0.1332807615E+01      0.3247130410E+01
          0                 3           2             4    7     1       0.1668804413E-02       5    8    1         0.9325554348E-01      0.2272168619E+00
          0                 4           1             4    7     1      -0.6640330494E-04       5    8    1        -0.3812762797E-02      0.9292280475E-02

    ------------------------------------------------
       NWT REQUIRED            4 OUTER ITERATIONS 
       AND A TOTAL OF          7 INNER ITERATIONS.
    ------------------------------------------------

 NO OUTPUT CONTROL FOR STRESS PERIOD   30   TIME STEP   23
 
 SOLVING FOR HEAD 
                                                   Max.-Head-Change                         Max.-Flux-Residual
  Residual-Control   Outer-Iter.   Inner-Iter.     Column Row Layer    Maximum-Head-Change  Column Row Layer    Maximum-Flux-Residual          L2-NORM 
          0                 1           2             5    8     1       0.1647635539E-01       5    8    1         0.8853630090E+00      0.2054422428E+01
          0                 2           2             4    7     1      -0.2452624290E-01       5    8    1        -0.1333511722E+01      0.3248867100E+01
          0                 3           2             4    7     1       0.1669684828E-02       5    8    1         0.9330508405E-01      0.2273385108E+00
          0                 4           1             4    7     1      -0.6643833769E-04       5    8    1        -0.3814813689E-02      0.9297222234E-02

    ------------------------------------------------
       NWT REQUIRED            4 OUTER ITERATIONS 
       AND A TOTAL OF          7 INNER ITERATIONS.
    ------------------------------------------------

 NO OUTPUT CONTROL FOR STRESS PERIOD   30   TIME STEP   24
 
 SOLVING FOR HEAD 
                                                   Max.-Head-Change                         Max.-Flux-Residual
  Residual-Control   Outer-Iter.   Inner-Iter.     Column Row Layer    Maximum-Head-Change  Column Row Layer    Maximum-Flux-Residual          L2-NORM 
          0                 1           2             5    8     1       0.1660123428E-01       5    8    1         0.8921204829E+00      0.2070621089E+01
          0                 2           2             4    7     1      -0.2453905154E-01       5    8    1        -0.1334187479E+01      0.3250555541E+01
          0                 3           2             4    7     1       0.1670557048E-02       5    8    1         0.9335262714E-01      0.2274567920E+00
          0                 4           1             4    7     1      -0.6647304406E-04       5    8    1        -0.3816781621E-02      0.9302029903E-02

    ------------------------------------------------
       NWT REQUIRED            4 OUTER ITERATIONS 
       AND A TOTAL OF          7 INNER ITERATIONS.
    ------------------------------------------------

 NO OUTPUT CONTROL FOR STRESS PERIOD   30   TIME STEP   25
 
 SOLVING FOR HEAD 
                                                   Max.-Head-Change                         Max.-Flux-Residual
  Residual-Control   Outer-Iter.   Inner-Iter.     Column Row Layer    Maximum-Head-Change  Column Row Layer    Maximum-Flux-Residual          L2-NORM 
          0                 1           2             5    8     1       0.1672125529E-01       5    8    1         0.8986106992E+00      0.2086413107E+01
          0                 2           2             4    7     1      -0.2455175903E-01       5    8    1        -0.1334836510E+01      0.3252198491E+01
          0                 3           2             4    7     1       0.1671422380E-02       5    8    1         0.9339828655E-01      0.2275718992E+00
          0                 4           1             4    7     1      -0.6650747642E-04       5    8    1        -0.3818671251E-02      0.9306712413E-02

    ------------------------------------------------
       NWT REQUIRED            4 OUTER ITERATIONS 
       AND A TOTAL OF          7 INNER ITERATIONS.
    ------------------------------------------------

 NO OUTPUT CONTROL FOR STRESS PERIOD   30   TIME STEP   26
 
 SOLVING FOR HEAD 
                                                   Max.-Head-Change                         Max.-Flux-Residual
  Residual-Control   Outer-Iter.   Inner-Iter.     Column Row Layer    Maximum-Head-Change  Column Row Layer    Maximum-Flux-Residual          L2-NORM 
          0                 1           2             5    8     1       0.1683654849E-01       5    8    1         0.9048411866E+00      0.2101805422E+01
          0                 2           2             4    7     1      -0.2456433172E-01       5    8    1        -0.1335459567E+01      0.3253797118E+01
          0                 3           2             4    7     1       0.1672278531E-02       5    8    1         0.9344211651E-01      0.2276839111E+00
          0                 4           1             4    7     1      -0.6654154360E-04       5    8    1        -0.3820484953E-02      0.9311271437E-02

    ------------------------------------------------
       NWT REQUIRED            4 OUTER ITERATIONS 
       AND A TOTAL OF          7 INNER ITERATIONS.
    ------------------------------------------------

 NO OUTPUT CONTROL FOR STRESS PERIOD   30   TIME STEP   27
 
 SOLVING FOR HEAD 
                                                   Max.-Head-Change                         Max.-Flux-Residual
  Residual-Control   Outer-Iter.   Inner-Iter.     Column Row Layer    Maximum-Head-Change  Column Row Layer    Maximum-Flux-Residual          L2-NORM 
          0                 1           2             5    8     1       0.1694766194E-01       5    8    1         0.9108422664E+00      0.2116815402E+01
          0                 2           2             4    7     1      -0.2457679017E-01       5    8    1        -0.1336059683E+01      0.3255353406E+01
          0                 3           2             4    7     1       0.1673126903E-02       5    8    1         0.9348432989E-01      0.2277929651E+00
          0                 4           1             4    7     1      -0.6657530120E-04       5    8    1        -0.3822231492E-02      0.9315712030E-02

    ------------------------------------------------
       NWT REQUIRED            4 OUTER ITERATIONS 
       AND A TOTAL OF          7 INNER ITERATIONS.
    ------------------------------------------------

 NO OUTPUT CONTROL FOR STRESS PERIOD   30   TIME STEP   28
 
 SOLVING FOR HEAD 
                                                   Max.-Head-Change                         Max.-Flux-Residual
  Residual-Control   Outer-Iter.   Inner-Iter.     Column Row Layer    Maximum-Head-Change  Column Row Layer    Maximum-Flux-Residual          L2-NORM 
          0                 1           2             5    8     1       0.1705439733E-01       5    8    1         0.9166030590E+00      0.2131440367E+01
          0                 2           2             4    7     1      -0.2458910167E-01       5    8    1        -0.1336635770E+01      0.3256867730E+01
          0                 3           2             4    7     1       0.1673965267E-02       5    8    1         0.9352485079E-01      0.2278990860E+00
          0                 4           1             4    7     1      -0.6660865988E-04       5    8    1        -0.3823907813E-02      0.9320034819E-02

    ------------------------------------------------
       NWT REQUIRED            4 OUTER ITERATIONS 
       AND A TOTAL OF          7 INNER ITERATIONS.
    ------------------------------------------------

 NO OUTPUT CONTROL FOR STRESS PERIOD   30   TIME STEP   29
 
 SOLVING FOR HEAD 
                                                   Max.-Head-Change                         Max.-Flux-Residual
  Residual-Control   Outer-Iter.   Inner-Iter.     Column Row Layer    Maximum-Head-Change  Column Row Layer    Maximum-Flux-Residual          L2-NORM 
          0                 1           2             5    8     1       0.1715742629E-01       5    8    1         0.9221604359E+00      0.2145711977E+01
          0                 2           2             4    7     1      -0.2460127559E-01       5    8    1        -0.1337191515E+01      0.3258343276E+01
          0                 3           2             4    7     1       0.1674794263E-02       5    8    1         0.9356393762E-01      0.2280024958E+00
          0                 4           1             4    7     1      -0.6664164693E-04       5    8    1        -0.3825524449E-02      0.9324252171E-02

    ------------------------------------------------
       NWT REQUIRED            4 OUTER ITERATIONS 
       AND A TOTAL OF          7 INNER ITERATIONS.
    ------------------------------------------------

 NO OUTPUT CONTROL FOR STRESS PERIOD   30   TIME STEP   30



 STREAM LISTING     PERIOD     30   STEP       30

 LAYER ROW COL. STREAM  RCH.  FLOW INTO     FLOW TO   FLOW OUT OF   OVRLND.     DIRECT     STREAM       STREAM     STREAM     STREAM   STREAMBED  STREAMBED
                SEG.NO.  NO.  STRM. RCH.    AQUIFER    STRM. RCH.    RUNOFF     PRECIP       ET          HEAD       DEPTH      WIDTH   CONDCTNC.   GRADIENT

   1    1    1     1     1    1.9000E+01  2.1427E-01   1.8786E+01  0.000E+00  0.000E+00  0.000E+00  1.09413E+03  1.082E+00  1.166E+01  5.249E-02  1.361E+00
   1    2    2     1     2    1.8786E+01  3.3054E-01   1.8455E+01  0.000E+00  0.000E+00  0.000E+00  1.08914E+03  1.077E+00  1.158E+01  8.107E-02  1.359E+00
   1    3    3     1     3    1.8455E+01  2.8064E-01   1.8175E+01  0.000E+00  0.000E+00  0.000E+00  1.08349E+03  1.072E+00  1.149E+01  6.892E-02  1.357E+00
   1    3    4     1     4    1.8175E+01  2.5740E-01   1.7917E+01  0.000E+00  0.000E+00  0.000E+00  1.07848E+03  1.068E+00  1.140E+01  6.328E-02  1.356E+00
   1    4    5     2     1    1.5917E+01  3.0542E-01   1.5612E+01  0.000E+00  0.000E+00  0.000E+00  1.07285E+03  9.157E-01  1.200E+01  7.800E-02  1.305E+00
   1    5    6     2     2    1.5612E+01  2.3438E-01   1.5377E+01  0.000E+00  0.000E+00  0.000E+00  1.06742E+03  9.063E-01  1.200E+01  6.000E-02  1.302E+00
   1    6    6     2     3    1.5377E+01  2.3388E-01   1.5143E+01  0.000E+00  0.000E+00  0.000E+00  1.06269E+03  8.980E-01  1.200E+01  6.000E-02  1.299E+00
   1    7    6     2     4    1.5143E+01  2.3338E-01   1.4910E+01  0.000E+00  0.000E+00  0.000E+00  1.05797E+03  8.897E-01  1.200E+01  6.000E-02  1.297E+00
   1    8    6     2     5    1.4910E+01  2.3289E-01   1.4677E+01  0.000E+00  0.000E+00  0.000E+00  1.05324E+03  8.814E-01  1.200E+01  6.000E-02  1.294E+00
   1    3    5     3     1    2.0000E+00  2.8252E-01   1.7175E+00  0.000E+00  0.000E+00  0.000E+00  1.07555E+03  1.909E+00  9.636E+00  7.227E-02  1.955E+00
   1    3    6     3     2    1.7175E+00  2.4905E-01   1.4684E+00  0.000E+00  0.000E+00  0.000E+00  1.07264E+03  1.727E+00  8.909E+00  6.682E-02  1.864E+00
   1    3    7     3     3    1.4684E+00  1.9718E-01   1.2712E+00  0.000E+00  0.000E+00  0.000E+00  1.06987E+03  1.555E+00  8.218E+00  5.547E-02  1.777E+00
   1    4    8     3     4    1.2712E+00  2.2567E-01   1.0456E+00  0.000E+00  0.000E+00  0.000E+00  1.06682E+03  1.364E+00  7.455E+00  6.709E-02  1.682E+00
   1    5    8     3     5    1.0456E+00  1.5790E-01   8.8768E-01  0.000E+00  0.000E+00  0.000E+00  1.06362E+03  1.164E+00  6.655E+00  4.991E-02  1.582E+00
   1    6    8     3     6    8.8768E-01  5.5980E-02   8.3170E-01  0.000E+00  0.000E+00  0.000E+00  1.06158E+03  1.036E+00  6.145E+00  1.844E-02  1.518E+00
   1    5   10     4     1    1.0000E+01  9.0919E-02   9.9091E+00  0.000E+00  0.000E+00  0.000E+00  1.07836E+03  6.368E-01  1.000E+01  2.500E-02  1.212E+00
   1    5    9     4     2    9.9091E+00  1.8158E-01   9.7275E+00  0.000E+00  0.000E+00  0.000E+00  1.07154E+03  6.315E-01  1.000E+01  5.000E-02  1.211E+00
   1    6    8     4     3    9.7275E+00  1.2689E-01   9.6006E+00  0.000E+00  0.000E+00  0.000E+00  1.06381E+03  6.256E-01  1.000E+01  3.500E-02  1.209E+00
   1    6    8     5     1    1.0432E+01  2.2686E-01   1.0205E+01  0.000E+00  0.000E+00  0.000E+00  1.05868E+03  6.790E-01  1.542E+01  6.166E-02  1.226E+00
   1    7    7     5     2    1.0205E+01  2.7894E-01   9.9265E+00  0.000E+00  0.000E+00  0.000E+00  1.05417E+03  6.732E-01  1.519E+01  7.594E-02  1.224E+00
   1    8    7     5     3    9.9265E+00  1.9221E-01   9.7343E+00  0.000E+00  0.000E+00  0.000E+00  1.04992E+03  6.676E-01  1.497E+01  5.241E-02  1.223E+00
   1    8    6     5     4    9.7343E+00  1.3577E-01   9.5985E+00  0.000E+00  0.000E+00  0.000E+00  1.04691E+03  6.637E-01  1.482E+01  3.706E-02  1.221E+00
   1    9    6     6     1    2.4276E+01  2.5176E-01   2.4024E+01  0.000E+00  0.000E+00  0.000E+00  1.04392E+03  1.196E+00  1.200E+01  6.000E-02  1.399E+00
   1   10    7     6     2    2.4024E+01  2.5131E-01   2.3773E+01  0.000E+00  0.000E+00  0.000E+00  1.03937E+03  1.188E+00  1.200E+01  6.000E-02  1.396E+00
   1   11    7     6     3    2.3773E+01  2.5086E-01   2.3522E+01  0.000E+00  0.000E+00  0.000E+00  1.03482E+03  1.181E+00  1.200E+01  6.000E-02  1.394E+00
   1   12    7     6     4    2.3522E+01  2.5041E-01   2.3271E+01  0.000E+00  0.000E+00  0.000E+00  1.03026E+03  1.173E+00  1.200E+01  6.000E-02  1.391E+00
   1   13    7     6     5    2.3271E+01  5.8851E-03   2.3266E+01  0.000E+00  0.000E+00  0.000E+00  1.02708E+03  1.170E+00  1.200E+01  2.400E-02  8.174E-02
   1   14    9     7     1    1.5000E+02  1.3457E+00   1.4865E+02  0.000E+00  0.000E+00  0.000E+00  1.03987E+03  2.288E+00  5.529E+01  5.593E-01  8.020E-01
   1   13    8     7     2    1.4865E+02  1.8960E+00   1.4676E+02  0.000E+00  0.000E+00  0.000E+00  1.03478E+03  2.279E+00  5.526E+01  6.148E-01  1.028E+00
   1   13    7     7     3    1.4676E+02  1.5946E+00   1.4516E+02  0.000E+00  0.000E+00  0.000E+00  1.02969E+03  2.270E+00  5.521E+01  5.584E-01  9.519E-01
   1   13    6     8     1    1.6843E+02  1.0389E+00   1.6739E+02  0.000E+00  0.000E+00  0.000E+00  1.02481E+03  2.939E+00  4.261E+01  4.342E-01  7.976E-01
   1   13    5     8     2    1.6739E+02  2.8739E-01   1.6710E+02  0.000E+00  0.000E+00  0.000E+00  1.01856E+03  2.934E+00  4.255E+01  4.336E-01  2.210E-01
   1   13    4     8     3    1.6710E+02 -2.0590E+00   1.6916E+02  0.000E+00  0.000E+00  0.000E+00  1.01232E+03  2.940E+00  4.263E+01  4.344E+00 -1.580E-01
   1   13    3     8     4    1.6916E+02 -3.4657E+00   1.7263E+02  0.000E+00  0.000E+00  0.000E+00  1.00608E+03  2.958E+00  4.289E+01  4.371E+00 -2.643E-01
   1   13    2     8     5    1.7263E+02 -2.5355E+00   1.7516E+02  0.000E+00  0.000E+00  0.000E+00  9.99852E+02  2.977E+00  4.317E+01  4.399E+00 -1.921E-01
   1   13    1     8     6    1.7516E+02 -1.9732E+00   1.7714E+02  0.000E+00  0.000E+00  0.000E+00  9.94867E+02  2.992E+00  4.338E+01  2.652E+00 -2.480E-01





UNSATURATED ZONE PACKAGE VOLUMETRIC BUDGET FOR  TIME STEP    30 STRESS PERIOD   30
  ------------------------------------------------------------------------------



     CUMULATIVE VOLUMES      L**3       RATES FOR THIS TIME STEP      L**3/T
     ------------------                 ------------------------

           IN:                                      IN:
           ---                                      ---
        INFILTRATION =   964237708.2592          INFILTRATION =           8.3175

          OUT:                                     OUT:
          ----                                     ----
              UZF ET =   888299255.7949                UZF ET =           8.3175
        UZF RECHARGE =    75864354.0216          UZF RECHARGE =       0.0000E+00

            IN - OUT =       74098.4427              IN - OUT =       0.0000E+00

          STORAGE:                                 STORAGE:
          --------                                 --------
      STORAGE CHANGE =       74099.6626        STORAGE CHANGE =      -2.0077E-13

 PERCENT DISCREPANCY IS DIFFERENCE BETWEEN IN-OUT MINUS CHANGE IN STORAGE
 DIVIDED BY THE AVERAGE OF IN AND OUT TIMES 100

 PERCENT DISCREPANCY =           0.00     PERCENT DISCREPANCY =           0.00






1
  VOLUMETRIC BUDGET FOR AGRICULTURAL FIELDS AT  END OF TIME STEP   30, STRESS PERIOD  30
  ------------------------------------------------------------------------------

     CUMULATIVE VOLUMES      L**3       RATES FOR THIS TIME STEP      L**3/T
     ------------------                 ------------------------

           IN:                                      IN:
           ---                                      ---
               AG WELLS  =   899524480.0000                 AG WELLS  =           7.4700
      DIVERSION SEGMENTS =           0.0000        DIVERSION SEGMENTS =           0.0000
       IRRIGATION PONDS  =           0.0000         IRRIGATION PONDS  =           0.0000
           GW IRRIGATION =           0.0000             GW IRRIGATION =           0.0000
           SW IRRIGATION =           0.0000             SW IRRIGATION =           0.0000
        SYSTEM LOSSES GW =           0.0000          SYSTEM LOSSES GW =           0.0000
        SYSTEM LOSSES SW =           0.0000          SYSTEM LOSSES SW =           0.0000

                TOTAL IN =   899524480.0000                  TOTAL IN =           7.4700

          OUT:                                     OUT:
          ----                                     ----
               AG WELLS  =           0.0000                 AG WELLS  =           0.0000
      DIVERSION SEGMENTS =           0.0000        DIVERSION SEGMENTS =           0.0000
       IRRIGATION PONDS  =           0.0000         IRRIGATION PONDS  =           0.0000
           GW IRRIGATION =   899524480.0000             GW IRRIGATION =           7.4700
           SW IRRIGATION =           0.0000             SW IRRIGATION =           0.0000
        SYSTEM LOSSES GW =           0.0000          SYSTEM LOSSES GW =           0.0000
        SYSTEM LOSSES SW =           0.0000          SYSTEM LOSSES SW =           0.0000

               TOTAL OUT =   899524480.0000                 TOTAL OUT =           7.4700

                IN - OUT =           0.0000                  IN - OUT =           0.0000

     PERCENT DISCREPANCY =           0.00         PERCENT DISCREPANCY =           0.00



1
  VOLUMETRIC BUDGET FOR ENTIRE MODEL AT END OF TIME STEP   30, STRESS PERIOD  30
  ------------------------------------------------------------------------------

     CUMULATIVE VOLUMES      L**3       RATES FOR THIS TIME STEP      L**3/T
     ------------------                 ------------------------

           IN:                                      IN:
           ---                                      ---
             STORAGE     =  1217522304.0000               STORAGE     =           6.0377
       CONSTANT HEAD     =           0.0000         CONSTANT HEAD     =           0.0000
     HEAD DEP BOUNDS     =    21806776.0000       HEAD DEP BOUNDS     =           0.2864
      STREAM LEAKAGE     =   939988672.0000        STREAM LEAKAGE     =          11.8971
        UZF RECHARGE     =    75864392.0000          UZF RECHARGE     =           0.0000
               GW ET     =           0.0000                 GW ET     =           0.0000
     SURFACE LEAKAGE     =           0.0000       SURFACE LEAKAGE     =           0.0000
           AG WELLS      =           0.0000             AG WELLS      =           0.0000

                TOTAL IN =  2255182080.0000                  TOTAL IN =          18.2212

          OUT:                                     OUT:
          ----                                     ----
             STORAGE     =   526866912.0000               STORAGE     =           0.4282
       CONSTANT HEAD     =           0.0000         CONSTANT HEAD     =           0.0000
     HEAD DEP BOUNDS     =    22390508.0000       HEAD DEP BOUNDS     =           0.2892
      STREAM LEAKAGE     =   788796544.0000        STREAM LEAKAGE     =          10.0335
        UZF RECHARGE     =           0.0000          UZF RECHARGE     =           0.0000
               GW ET     =    17607784.0000                 GW ET     =           0.0000
     SURFACE LEAKAGE     =           0.0000       SURFACE LEAKAGE     =           0.0000
           AG WELLS      =   899524480.0000             AG WELLS      =           7.4700

               TOTAL OUT =  2255186176.0000                 TOTAL OUT =          18.2209

                IN - OUT =       -4096.0000                  IN - OUT =       3.0136E-04

     PERCENT DISCREPANCY =          -0.00         PERCENT DISCREPANCY =           0.00






         TIME SUMMARY AT END OF TIME STEP   30 IN STRESS PERIOD   30
                    SECONDS     MINUTES      HOURS       DAYS        YEARS
                    -----------------------------------------------------------
   TIME STEP LENGTH  87667.      1461.1      24.352      1.0147     2.77799E-03
 STRESS PERIOD TIME 2.63000E+06  43833.      730.56      30.440     8.33397E-02
         TOTAL TIME 7.63565E+07 1.27261E+06  21210.      883.76      2.4196    
1
1
                            STRESS PERIOD NO.   31, LENGTH =   2630000.    
                            -----------------------------------------------

                              NUMBER OF TIME STEPS =    30

                               MULTIPLIER FOR DELT =     1.000

                            INITIAL TIME STEP SIZE =   87666.66    

 REUSING NON-PARAMETER GHB CELLS FROM LAST STRESS PERIOD

      2 GHB CELLS

 REUSING STREAM SEGMENT DATA FROM LAST STRESS PERIOD



            AREAL INFILTRATION RATE
 READING ON UNIT   19 WITH FORMAT: (FREE)              

            1           2           3           4           5           6           7           8           9          10
 ........................................................................................................................
   1   1.0000E-10  2.0000E-10   0.000       0.000       0.000       0.000       0.000       0.000       0.000       0.000    
   2   2.0000E-10  1.0000E-10  2.0000E-10   0.000       0.000      8.0000E-10  8.0000E-10  5.0000E-10   0.000       0.000    
   3    0.000      5.0000E-10  1.0000E-10  1.0000E-10  8.0000E-10  8.0000E-10  5.0000E-10  5.0000E-10   0.000       0.000    
   4   8.0000E-10  5.0000E-10  1.0000E-10  1.0000E-10  1.0000E-10  1.0000E-10  1.0000E-10  1.0000E-10  2.0000E-10   0.000    
   5   8.0000E-10  5.0000E-10  1.0000E-10  1.0000E-10  1.0000E-10  1.0000E-10  1.0000E-10  1.0000E-10  1.0000E-10  1.0000E-10
   6   8.0000E-10  5.0000E-10  5.0000E-10  2.0000E-10  2.0000E-10  1.0000E-10  1.0000E-10  1.0000E-10  1.0000E-10  5.0000E-10
   7   8.0000E-10  5.0000E-10  5.0000E-10  2.0000E-10  2.0000E-10  1.0000E-10  1.0000E-10  2.0000E-10  2.0000E-10   0.000    
   8    0.000      5.0000E-10  5.0000E-10  2.0000E-10  2.0000E-10  1.0000E-10  1.0000E-10  2.0000E-10  5.0000E-10   0.000    
   9    0.000      5.0000E-10  5.0000E-10  2.0000E-10  2.0000E-10  1.0000E-10  1.0000E-10  2.0000E-10  5.0000E-10   0.000    
  10    0.000      5.0000E-10  5.0000E-10  2.0000E-10  2.0000E-10  1.0000E-10  1.0000E-10  2.0000E-10  5.0000E-10  8.0000E-10
  11    0.000      1.0000E-10  1.0000E-10  1.0000E-10  1.0000E-10  1.0000E-10  1.0000E-10  2.0000E-10  5.0000E-10   0.000    
  12   1.0000E-10  1.0000E-10  1.0000E-10  1.0000E-10  1.0000E-10  1.0000E-10  1.0000E-10  1.0000E-10  2.0000E-10   0.000    
  13   1.0000E-10  1.0000E-10  2.0000E-10  2.0000E-10  2.0000E-10  2.0000E-10  2.0000E-10  1.0000E-10  1.0000E-10   0.000    
  14    0.000      2.0000E-10  5.0000E-10  5.0000E-10  5.0000E-10  5.0000E-10  5.0000E-10  2.0000E-10  1.0000E-10   0.000    
  15    0.000       0.000      8.0000E-10  8.0000E-10  8.0000E-10  8.0000E-10   0.000       0.000       0.000       0.000    

                  ET RATE =  1.500000E-07

 USING ET EXTINCTION DEPTH FROM PREVIOUS STRESS PERIOD. CURRENT PERIOD IS:      31

 USING EXTINCTION WATER CONTENT FROM PREVIOUS STRESS PERIOD. CURRENT PERIOD IS:      31

 USING AIR ENTRY PRESSURE FROM PREVIOUS STRESS PERIOD. CURRENT PERIOD IS:      31

 USING ROOT PRESSURE HEAD FROM PREVIOUS STRESS PERIOD. CURRENT PERIOD IS:      31

 USING ROOT ACTIVITY FROM PREVIOUS STRESS PERIOD. CURRENT PERIOD IS:      31

 PROCESSING AG STRESS PERIOD DATA

 READING AG STRESS PERIOD DATA

 READING IRRIGATION WELL

 NO IRRPOND OR REUSING IRRPOND DATA FROM LAST STRESS PERIOD

 END PROCESSING AG STRESS PERIOD DATA OPTIONS
 
 SOLVING FOR HEAD 
                                                   Max.-Head-Change                         Max.-Flux-Residual
  Residual-Control   Outer-Iter.   Inner-Iter.     Column Row Layer    Maximum-Head-Change  Column Row Layer    Maximum-Flux-Residual          L2-NORM 
          0                 1           2             4    7     1      -0.5725190738E-01       4    7    1        -0.2993172444E+01      0.7105739907E+01
          0                 2           2             4    7     1       0.5569018418E-02       4    7    1         0.2993153223E+00      0.7105663470E+00
          0                 3           2             4    7     1      -0.3792297683E-03       4    7    1        -0.2095209754E-01      0.4973972337E-01
          0                 4           1             4    7     1       0.1508990617E-04       4    7    1         0.8569419138E-03      0.2034358524E-02

    ------------------------------------------------
       NWT REQUIRED            4 OUTER ITERATIONS 
       AND A TOTAL OF          7 INNER ITERATIONS.
    ------------------------------------------------

 NO OUTPUT CONTROL FOR STRESS PERIOD   31   TIME STEP    1
 
 SOLVING FOR HEAD 
                                                   Max.-Head-Change                         Max.-Flux-Residual
  Residual-Control   Outer-Iter.   Inner-Iter.     Column Row Layer    Maximum-Head-Change  Column Row Layer    Maximum-Flux-Residual          L2-NORM 
          0                 1           2             5    8     1       0.1866384505E-01       5    8    1         0.1004890313E+01      0.2296742594E+01
          0                 2           2             4    7     1      -0.7122802250E-01       5    8    1        -0.3845453941E+01      0.9396027764E+01
          0                 3           2             4    7     1       0.4850330454E-02       5    8    1         0.2691285175E+00      0.6576544784E+00
          0                 4           2             4    7     1      -0.1929993260E-03       5    8    1        -0.1100332555E-01      0.2689589630E-01
          0                 5           1             4    7     1       0.2379765269E-05       5    8    1         0.1391678161E-03      0.3416459924E-03

    ------------------------------------------------
       NWT REQUIRED            5 OUTER ITERATIONS 
       AND A TOTAL OF          9 INNER ITERATIONS.
    ------------------------------------------------

 NO OUTPUT CONTROL FOR STRESS PERIOD   31   TIME STEP    2
 
 SOLVING FOR HEAD 
                                                   Max.-Head-Change                         Max.-Flux-Residual
  Residual-Control   Outer-Iter.   Inner-Iter.     Column Row Layer    Maximum-Head-Change  Column Row Layer    Maximum-Flux-Residual          L2-NORM 
          0                 1           2             5    8     1       0.1999211574E-01       5    8    1         0.1077866286E+01      0.2432168560E+01
          0                 2           2             4    7     1      -0.7126620364E-01       5    8    1        -0.3852751935E+01      0.9408390310E+01
          0                 3           2             4    7     1       0.4852286875E-02       5    8    1         0.2696067882E+00      0.6584316645E+00
          0                 4           2             4    7     1      -0.1930771729E-03       5    8    1        -0.1102317761E-01      0.2692717095E-01
          0                 5           1             4    7     1       0.2380724900E-05       5    8    1         0.1394391311E-03      0.3418873146E-03

    ------------------------------------------------
       NWT REQUIRED            5 OUTER ITERATIONS 
       AND A TOTAL OF          9 INNER ITERATIONS.
    ------------------------------------------------

 NO OUTPUT CONTROL FOR STRESS PERIOD   31   TIME STEP    3
 
 SOLVING FOR HEAD 
                                                   Max.-Head-Change                         Max.-Flux-Residual
  Residual-Control   Outer-Iter.   Inner-Iter.     Column Row Layer    Maximum-Head-Change  Column Row Layer    Maximum-Flux-Residual          L2-NORM 
          0                 1           2             5    8     1       0.2124930607E-01       5    8    1         0.1146876273E+01      0.2565196265E+01
          0                 2           2             4    7     1      -0.7130593040E-01       5    8    1        -0.3859653092E+01      0.9420344146E+01
          0                 3           2             4    7     1       0.4854992392E-02       5    8    1         0.2700926050E+00      0.6592678944E+00
          0                 4           2             4    7     1      -0.1931848273E-03       5    8    1        -0.1104331811E-01      0.2696096981E-01
          0                 5           1             4    7     1       0.2382052724E-05       5    8    1         0.1397127235E-03      0.3421796087E-03

    ------------------------------------------------
       NWT REQUIRED            5 OUTER ITERATIONS 
       AND A TOTAL OF          9 INNER ITERATIONS.
    ------------------------------------------------

 NO OUTPUT CONTROL FOR STRESS PERIOD   31   TIME STEP    4
 
 SOLVING FOR HEAD 
                                                   Max.-Head-Change                         Max.-Flux-Residual
  Residual-Control   Outer-Iter.   Inner-Iter.     Column Row Layer    Maximum-Head-Change  Column Row Layer    Maximum-Flux-Residual          L2-NORM 
          0                 1           2             5    8     1       0.2244038549E-01       5    8    1         0.1212200029E+01      0.2695231687E+01
          0                 2           2             4    7     1      -0.7134705587E-01       5    8    1        -0.3866185625E+01      0.9431908070E+01
          0                 3           2             4    7     1       0.4857793131E-02       5    8    1         0.2705524324E+00      0.6600777383E+00
          0                 4           2             4    7     1      -0.1932962700E-03       5    8    1        -0.1106237734E-01      0.2699380952E-01
          0                 5           1             4    7     1       0.2383426922E-05       5    8    1         0.1399713660E-03      0.3424800113E-03

    ------------------------------------------------
       NWT REQUIRED            5 OUTER ITERATIONS 
       AND A TOTAL OF          9 INNER ITERATIONS.
    ------------------------------------------------

 NO OUTPUT CONTROL FOR STRESS PERIOD   31   TIME STEP    5
 
 SOLVING FOR HEAD 
                                                   Max.-Head-Change                         Max.-Flux-Residual
  Residual-Control   Outer-Iter.   Inner-Iter.     Column Row Layer    Maximum-Head-Change  Column Row Layer    Maximum-Flux-Residual          L2-NORM 
          0                 1           2             5    8     1       0.2356980870E-01       5    8    1         0.1274088444E+01      0.2821891118E+01
          0                 2           2             4    7     1      -0.7138942592E-01       5    8    1        -0.3872374621E+01      0.9443098674E+01
          0                 3           2             4    7     1       0.4860678599E-02       5    8    1         0.2709880414E+00      0.6608630025E+00
          0                 4           2             4    7     1      -0.1934110844E-03       5    8    1        -0.1108042911E-01      0.2702579993E-01
          0                 5           1             4    7     1       0.2384842453E-05       5    8    1         0.1402161006E-03      0.3427804967E-03

    ------------------------------------------------
       NWT REQUIRED            5 OUTER ITERATIONS 
       AND A TOTAL OF          9 INNER ITERATIONS.
    ------------------------------------------------

 NO OUTPUT CONTROL FOR STRESS PERIOD   31   TIME STEP    6
 
 SOLVING FOR HEAD 
                                                   Max.-Head-Change                         Max.-Flux-Residual
  Residual-Control   Outer-Iter.   Inner-Iter.     Column Row Layer    Maximum-Head-Change  Column Row Layer    Maximum-Flux-Residual          L2-NORM 
          0                 1           2             5    8     1       0.2464153871E-01       5    8    1         0.1332764619E+01      0.2944972287E+01
          0                 2           2             4    7     1      -0.7143290867E-01       5    8    1        -0.3878242390E+01      0.9453932196E+01
          0                 3           2             4    7     1       0.4863639818E-02       5    8    1         0.2714010059E+00      0.6616236053E+00
          0                 4           2             4    7     1      -0.1935289126E-03       5    8    1        -0.1109753903E-01      0.2705685673E-01
          0                 5           1             4    7     1       0.2386295174E-05       5    8    1         0.1404478567E-03      0.3430912414E-03

    ------------------------------------------------
       NWT REQUIRED            5 OUTER ITERATIONS 
       AND A TOTAL OF          9 INNER ITERATIONS.
    ------------------------------------------------

 NO OUTPUT CONTROL FOR STRESS PERIOD   31   TIME STEP    7
 
 SOLVING FOR HEAD 
                                                   Max.-Head-Change                         Max.-Flux-Residual
  Residual-Control   Outer-Iter.   Inner-Iter.     Column Row Layer    Maximum-Head-Change  Column Row Layer    Maximum-Flux-Residual          L2-NORM 
          0                 1           2             5    8     1       0.2565965751E-01       5    8    1         0.1388457578E+01      0.3064371338E+01
          0                 2           2             4    7     1      -0.7147736799E-01       5    8    1        -0.3883811834E+01      0.9464424449E+01
          0                 3           2             4    7     1       0.4866667518E-02       5    8    1         0.2717929406E+00      0.6623605802E+00
          0                 4           2             4    7     1      -0.1936493870E-03       5    8    1        -0.1111377431E-01      0.2708700986E-01
          0                 5           1             4    7     1       0.2387780938E-05       5    8    1         0.1406675019E-03      0.3433989480E-03

    ------------------------------------------------
       NWT REQUIRED            5 OUTER ITERATIONS 
       AND A TOTAL OF          9 INNER ITERATIONS.
    ------------------------------------------------

 NO OUTPUT CONTROL FOR STRESS PERIOD   31   TIME STEP    8
 
 SOLVING FOR HEAD 
                                                   Max.-Head-Change                         Max.-Flux-Residual
  Residual-Control   Outer-Iter.   Inner-Iter.     Column Row Layer    Maximum-Head-Change  Column Row Layer    Maximum-Flux-Residual          L2-NORM 
          0                 1           2             5    8     1       0.2662750453E-01       5    8    1         0.1441355387E+01      0.3180062676E+01
          0                 2           2             4    7     1      -0.7152266327E-01       5    8    1        -0.3889101759E+01      0.9474589341E+01
          0                 3           2             4    7     1       0.4869752717E-02       5    8    1         0.2725178800E+00      0.6632203891E+00
          0                 4           2             4    7     1      -0.1937721429E-03       5    8    1        -0.1114351741E-01      0.2712213900E-01
          0                 5           1             4    7     1       0.2389294595E-05       5    8    1         0.1410538780E-03      0.3437793401E-03

    ------------------------------------------------
       NWT REQUIRED            5 OUTER ITERATIONS 
       AND A TOTAL OF          9 INNER ITERATIONS.
    ------------------------------------------------

 NO OUTPUT CONTROL FOR STRESS PERIOD   31   TIME STEP    9
 
 SOLVING FOR HEAD 
                                                   Max.-Head-Change                         Max.-Flux-Residual
  Residual-Control   Outer-Iter.   Inner-Iter.     Column Row Layer    Maximum-Head-Change  Column Row Layer    Maximum-Flux-Residual          L2-NORM 
          0                 1           2             5    8     1       0.2751761996E-01       5    8    1         0.1491711398E+01      0.3292113488E+01
          0                 2           2             4    7     1      -0.7156868745E-01       5    8    1        -0.3892245365E+01      0.9483661389E+01
          0                 3           2             4    7     1       0.4872902563E-02       5    8    1         0.2747078443E+00      0.6646779809E+00
          0                 4           2             4    7     1      -0.1938974728E-03       5    8    1        -0.1123406782E-01      0.2718213828E-01
          0                 5           1             4    7     1       0.2390839616E-05       5    8    1         0.1422680025E-03      0.3444694258E-03

    ------------------------------------------------
       NWT REQUIRED            5 OUTER ITERATIONS 
       AND A TOTAL OF          9 INNER ITERATIONS.
    ------------------------------------------------

 NO OUTPUT CONTROL FOR STRESS PERIOD   31   TIME STEP   10
 
 SOLVING FOR HEAD 
                                                   Max.-Head-Change                         Max.-Flux-Residual
  Residual-Control   Outer-Iter.   Inner-Iter.     Column Row Layer    Maximum-Head-Change  Column Row Layer    Maximum-Flux-Residual          L2-NORM 
          0                 1           2             5    8     1       0.2842554533E-01       5    8    1         0.1541368682E+01      0.3401531657E+01
          0                 2           2             4    7     1      -0.7161535084E-01       5    8    1        -0.3899093548E+01      0.9494068481E+01
          0                 3           2             5    8     1       0.4890266903E-02       5    8    1         0.2770927313E+00      0.6662176431E+00
          0                 4           2             5    8     1      -0.1945884144E-03       5    8    1        -0.1133330785E-01      0.2724679460E-01
          0                 5           1             5    8     1       0.2399359352E-05       5    8    1         0.1436743123E-03      0.3454823979E-03

    ------------------------------------------------
       NWT REQUIRED            5 OUTER ITERATIONS 
       AND A TOTAL OF          9 INNER ITERATIONS.
    ------------------------------------------------

 NO OUTPUT CONTROL FOR STRESS PERIOD   31   TIME STEP   11
 
 SOLVING FOR HEAD 
                                                   Max.-Head-Change                         Max.-Flux-Residual
  Residual-Control   Outer-Iter.   Inner-Iter.     Column Row Layer    Maximum-Head-Change  Column Row Layer    Maximum-Flux-Residual          L2-NORM 
          0                 1           2             5    8     1       0.2928903320E-01       5    8    1         0.1588553490E+01      0.3507342617E+01
          0                 2           2             4    7     1      -0.7166248661E-01       5    8    1        -0.3903819489E+01      0.9503407322E+01
          0                 3           2             4    7     1       0.4879276156E-02       5    8    1         0.2732080444E+00      0.6651080164E+00
          0                 4           2             4    7     1      -0.1941510833E-03       5    8    1        -0.1117207163E-01      0.2719975033E-01
          0                 5           1             4    7     1       0.2393967070E-05       5    8    1         0.1414379331E-03      0.3446706650E-03

    ------------------------------------------------
       NWT REQUIRED            5 OUTER ITERATIONS 
       AND A TOTAL OF          9 INNER ITERATIONS.
    ------------------------------------------------

 NO OUTPUT CONTROL FOR STRESS PERIOD   31   TIME STEP   12
 
 SOLVING FOR HEAD 
                                                   Max.-Head-Change                         Max.-Flux-Residual
  Residual-Control   Outer-Iter.   Inner-Iter.     Column Row Layer    Maximum-Head-Change  Column Row Layer    Maximum-Flux-Residual          L2-NORM 
          0                 1           2             5    8     1       0.3011093912E-01       5    8    1         0.1633426363E+01      0.3609658718E+01
          0                 2           2             4    7     1      -0.7171009101E-01       5    8    1        -0.3908306747E+01      0.9512462863E+01
          0                 3           2             4    7     1       0.4882517949E-02       5    8    1         0.2735237722E+00      0.6657450704E+00
          0                 4           2             4    7     1      -0.1942800766E-03       5    8    1        -0.1118514187E-01      0.2722600210E-01
          0                 5           1             4    7     1       0.2395557344E-05       5    8    1         0.1416142272E-03      0.3449829570E-03

    ------------------------------------------------
       NWT REQUIRED            5 OUTER ITERATIONS 
       AND A TOTAL OF          9 INNER ITERATIONS.
    ------------------------------------------------

 NO OUTPUT CONTROL FOR STRESS PERIOD   31   TIME STEP   13
 
 SOLVING FOR HEAD 
                                                   Max.-Head-Change                         Max.-Flux-Residual
  Residual-Control   Outer-Iter.   Inner-Iter.     Column Row Layer    Maximum-Head-Change  Column Row Layer    Maximum-Flux-Residual          L2-NORM 
          0                 1           2             5    8     1       0.3089389572E-01       5    8    1         0.1676135341E+01      0.3708592398E+01
          0                 2           2             4    7     1      -0.7175803051E-01       5    8    1        -0.3912577615E+01      0.9521249282E+01
          0                 3           2             4    7     1       0.4885782546E-02       5    8    1         0.2738242460E+00      0.6663633057E+00
          0                 4           2             4    7     1      -0.1944099774E-03       5    8    1        -0.1119757786E-01      0.2725150390E-01
          0                 5           1             4    7     1       0.2397159045E-05       5    8    1         0.1417817784E-03      0.3452929812E-03

    ------------------------------------------------
       NWT REQUIRED            5 OUTER ITERATIONS 
       AND A TOTAL OF          9 INNER ITERATIONS.
    ------------------------------------------------

 NO OUTPUT CONTROL FOR STRESS PERIOD   31   TIME STEP   14
 
 SOLVING FOR HEAD 
                                                   Max.-Head-Change                         Max.-Flux-Residual
  Residual-Control   Outer-Iter.   Inner-Iter.     Column Row Layer    Maximum-Head-Change  Column Row Layer    Maximum-Flux-Residual          L2-NORM 
          0                 1           2             5    8     1       0.3164047744E-01       5    8    1         0.1716824781E+01      0.3804259857E+01
          0                 2           2             4    7     1      -0.7180622240E-01       5    8    1        -0.3916646528E+01      0.9529777278E+01
          0                 3           2             4    7     1       0.4889064319E-02       5    8    1         0.2741104838E+00      0.6669634498E+00
          0                 4           2             4    7     1      -0.1945405618E-03       5    8    1        -0.1120942196E-01      0.2727628098E-01
          0                 5           1             4    7     1       0.2398769146E-05       5    8    1         0.1419411760E-03      0.3456007658E-03

    ------------------------------------------------
       NWT REQUIRED            5 OUTER ITERATIONS 
       AND A TOTAL OF          9 INNER ITERATIONS.
    ------------------------------------------------

 NO OUTPUT CONTROL FOR STRESS PERIOD   31   TIME STEP   15
 
 SOLVING FOR HEAD 
                                                   Max.-Head-Change                         Max.-Flux-Residual
  Residual-Control   Outer-Iter.   Inner-Iter.     Column Row Layer    Maximum-Head-Change  Column Row Layer    Maximum-Flux-Residual          L2-NORM 
          0                 1           2             5    8     1       0.3235292242E-01       5    8    1         0.1755620315E+01      0.3896795048E+01
          0                 2           2             4    7     1      -0.7185460339E-01       5    8    1        -0.3920526051E+01      0.9538058351E+01
          0                 3           2             4    7     1       0.4892358956E-02       5    8    1         0.2743833724E+00      0.6675462882E+00
          0                 4           2             4    7     1      -0.1946716580E-03       5    8    1        -0.1122071115E-01      0.2730036170E-01
          0                 5           1             4    7     1       0.2400385744E-05       5    8    1         0.1420929566E-03      0.3459895788E-03

    ------------------------------------------------
       NWT REQUIRED            5 OUTER ITERATIONS 
       AND A TOTAL OF          9 INNER ITERATIONS.
    ------------------------------------------------

 NO OUTPUT CONTROL FOR STRESS PERIOD   31   TIME STEP   16
 
 SOLVING FOR HEAD 
                                                   Max.-Head-Change                         Max.-Flux-Residual
  Residual-Control   Outer-Iter.   Inner-Iter.     Column Row Layer    Maximum-Head-Change  Column Row Layer    Maximum-Flux-Residual          L2-NORM 
          0                 1           2             5    8     1       0.3303330344E-01       5    8    1         0.1792637992E+01      0.3986317367E+01
          0                 2           2             4    7     1      -0.7190308897E-01       5    8    1        -0.3924227787E+01      0.9546101770E+01
          0                 3           2             4    7     1       0.4895660704E-02       5    8    1         0.2746437300E+00      0.6681124538E+00
          0                 4           2             4    7     1      -0.1948030375E-03       5    8    1        -0.1123147944E-01      0.2732376871E-01
          0                 5           1             4    7     1       0.2402005926E-05       5    8    1         0.1422375367E-03      0.3462005831E-03

    ------------------------------------------------
       NWT REQUIRED            5 OUTER ITERATIONS 
       AND A TOTAL OF          9 INNER ITERATIONS.
    ------------------------------------------------

 NO OUTPUT CONTROL FOR STRESS PERIOD   31   TIME STEP   17
 
 SOLVING FOR HEAD 
                                                   Max.-Head-Change                         Max.-Flux-Residual
  Residual-Control   Outer-Iter.   Inner-Iter.     Column Row Layer    Maximum-Head-Change  Column Row Layer    Maximum-Flux-Residual          L2-NORM 
          0                 1           2             5    8     1       0.3368367332E-01       5    8    1         0.1827993133E+01      0.4072948944E+01
          0                 2           2             4    7     1      -0.7195162665E-01       5    8    1        -0.3927763270E+01      0.9553917363E+01
          0                 3           2             4    7     1       0.4898965989E-02       5    8    1         0.2748923702E+00      0.6686626210E+00
          0                 4           2             4    7     1      -0.1949345574E-03       5    8    1        -0.1124176079E-01      0.2734652688E-01
          0                 5           1             4    7     1       0.2403627789E-05       5    8    1         0.1423754534E-03      0.3464946838E-03

    ------------------------------------------------
       NWT REQUIRED            5 OUTER ITERATIONS 
       AND A TOTAL OF          9 INNER ITERATIONS.
    ------------------------------------------------

 NO OUTPUT CONTROL FOR STRESS PERIOD   31   TIME STEP   18
 
 SOLVING FOR HEAD 
                                                   Max.-Head-Change                         Max.-Flux-Residual
  Residual-Control   Outer-Iter.   Inner-Iter.     Column Row Layer    Maximum-Head-Change  Column Row Layer    Maximum-Flux-Residual          L2-NORM 
          0                 1           2             5    8     1       0.3430607756E-01       5    8    1         0.1861800022E+01      0.4156818374E+01
          0                 2           2             4    7     1      -0.7200014237E-01       5    8    1        -0.3931143928E+01      0.9561514756E+01
          0                 3           2             4    7     1       0.4902269770E-02       5    8    1         0.2751300984E+00      0.6691973818E+00
          0                 4           2             4    7     1      -0.1950660175E-03       5    8    1        -0.1125158860E-01      0.2736865066E-01
          0                 5           1             4    7     1       0.2405248196E-05       5    8    1         0.1425071041E-03      0.3467802448E-03

    ------------------------------------------------
       NWT REQUIRED            5 OUTER ITERATIONS 
       AND A TOTAL OF          9 INNER ITERATIONS.
    ------------------------------------------------

 NO OUTPUT CONTROL FOR STRESS PERIOD   31   TIME STEP   19
 
 SOLVING FOR HEAD 
                                                   Max.-Head-Change                         Max.-Flux-Residual
  Residual-Control   Outer-Iter.   Inner-Iter.     Column Row Layer    Maximum-Head-Change  Column Row Layer    Maximum-Flux-Residual          L2-NORM 
          0                 1           2             5    8     1       0.3490184949E-01       5    8    1         0.1894133329E+01      0.4238035998E+01
          0                 2           2             4    7     1      -0.7204858083E-01       5    8    1        -0.3934377227E+01      0.9568901969E+01
          0                 3           2             4    7     1       0.4905568280E-02       5    8    1         0.2753574423E+00      0.6697172796E+00
          0                 4           2             4    7     1      -0.1951972679E-03       5    8    1        -0.1126098498E-01      0.2739015931E-01
          0                 5           1             4    7     1       0.2406866698E-05       5    8    1         0.1426328490E-03      0.3470619367E-03

    ------------------------------------------------
       NWT REQUIRED            5 OUTER ITERATIONS 
       AND A TOTAL OF          9 INNER ITERATIONS.
    ------------------------------------------------

 NO OUTPUT CONTROL FOR STRESS PERIOD   31   TIME STEP   20
 
 SOLVING FOR HEAD 
                                                   Max.-Head-Change                         Max.-Flux-Residual
  Residual-Control   Outer-Iter.   Inner-Iter.     Column Row Layer    Maximum-Head-Change  Column Row Layer    Maximum-Flux-Residual          L2-NORM 
          0                 1           2             5    8     1       0.3547292976E-01       5    8    1         0.1925101420E+01      0.4316719529E+01
          0                 2           2             4    7     1      -0.7209690414E-01       5    8    1        -0.3937474005E+01      0.9576088104E+01
          0                 3           2             4    7     1       0.4908858940E-02       5    8    1         0.2755751647E+00      0.6702225404E+00
          0                 4           2             4    7     1      -0.1953282066E-03       5    8    1        -0.1126998151E-01      0.2741102061E-01
          0                 5           1             4    7     1       0.2408481280E-05       5    8    1         0.1427530683E-03      0.3473338929E-03

    ------------------------------------------------
       NWT REQUIRED            5 OUTER ITERATIONS 
       AND A TOTAL OF          9 INNER ITERATIONS.
    ------------------------------------------------

 NO OUTPUT CONTROL FOR STRESS PERIOD   31   TIME STEP   21
 
 SOLVING FOR HEAD 
                                                   Max.-Head-Change                         Max.-Flux-Residual
  Residual-Control   Outer-Iter.   Inner-Iter.     Column Row Layer    Maximum-Head-Change  Column Row Layer    Maximum-Flux-Residual          L2-NORM 
          0                 1           2             5    8     1       0.3602040438E-01       5    8    1         0.1954765690E+01      0.4392966533E+01
          0                 2           2             4    7     1      -0.7214505146E-01       5    8    1        -0.3940440401E+01      0.9583079464E+01
          0                 3           2             4    7     1       0.4912137609E-02       5    8    1         0.2757837005E+00      0.6707133013E+00
          0                 4           2             4    7     1      -0.1954586678E-03       5    8    1        -0.1127859650E-01      0.2743120842E-01
          0                 5           1             4    7     1       0.2410090037E-05       5    8    1         0.1428680766E-03      0.3475927969E-03

    ------------------------------------------------
       NWT REQUIRED            5 OUTER ITERATIONS 
       AND A TOTAL OF          9 INNER ITERATIONS.
    ------------------------------------------------

 NO OUTPUT CONTROL FOR STRESS PERIOD   31   TIME STEP   22
 
 SOLVING FOR HEAD 
                                                   Max.-Head-Change                         Max.-Flux-Residual
  Residual-Control   Outer-Iter.   Inner-Iter.     Column Row Layer    Maximum-Head-Change  Column Row Layer    Maximum-Flux-Residual          L2-NORM 
          0                 1           2             5    8     1       0.3654614084E-01       5    8    1         0.1983229517E+01      0.4466885214E+01
          0                 2           2             4    7     1      -0.7219298023E-01       5    8    1        -0.3943286753E+01      0.9589884553E+01
          0                 3           2             4    7     1       0.4915401388E-02       5    8    1         0.2759837763E+00      0.6711907719E+00
          0                 4           2             4    7     1      -0.1955885365E-03       5    8    1        -0.1128685996E-01      0.2745083135E-01
          0                 5           1             4    7     1       0.2411691065E-05       5    8    1         0.1429782724E-03      0.3478433048E-03

    ------------------------------------------------
       NWT REQUIRED            5 OUTER ITERATIONS 
       AND A TOTAL OF          9 INNER ITERATIONS.
    ------------------------------------------------

 NO OUTPUT CONTROL FOR STRESS PERIOD   31   TIME STEP   23
 
 SOLVING FOR HEAD 
                                                   Max.-Head-Change                         Max.-Flux-Residual
  Residual-Control   Outer-Iter.   Inner-Iter.     Column Row Layer    Maximum-Head-Change  Column Row Layer    Maximum-Flux-Residual          L2-NORM 
          0                 1           2             5    8     1       0.3705088003E-01       5    8    1         0.2010534818E+01      0.4538583348E+01
          0                 2           2             4    7     1      -0.7224066494E-01       5    8    1        -0.3946017253E+01      0.9596510845E+01
          0                 3           2             4    7     1       0.4918648541E-02       5    8    1         0.2761756897E+00      0.6716556791E+00
          0                 4           2             4    7     1      -0.1957177437E-03       5    8    1        -0.1129478444E-01      0.2746993859E-01
          0                 5           1             4    7     1       0.2413284140E-05       5    8    1         0.1430838138E-03      0.3481629718E-03

    ------------------------------------------------
       NWT REQUIRED            5 OUTER ITERATIONS 
       AND A TOTAL OF          9 INNER ITERATIONS.
    ------------------------------------------------

 NO OUTPUT CONTROL FOR STRESS PERIOD   31   TIME STEP   24
 
 SOLVING FOR HEAD 
                                                   Max.-Head-Change                         Max.-Flux-Residual
  Residual-Control   Outer-Iter.   Inner-Iter.     Column Row Layer    Maximum-Head-Change  Column Row Layer    Maximum-Flux-Residual          L2-NORM 
          0                 1           2             5    8     1       0.3753629272E-01       5    8    1         0.2036774919E+01      0.4608149145E+01
          0                 2           2             4    7     1      -0.7228805580E-01       5    8    1        -0.3948641233E+01      0.9602963970E+01
          0                 3           2             4    7     1       0.4921875676E-02       5    8    1         0.2763600977E+00      0.6721084192E+00
          0                 4           2             4    7     1      -0.1958461545E-03       5    8    1        -0.1130239723E-01      0.2748854480E-01
          0                 5           1             4    7     1       0.2414867694E-05       5    8    1         0.1431850687E-03      0.3483285212E-03

    ------------------------------------------------
       NWT REQUIRED            5 OUTER ITERATIONS 
       AND A TOTAL OF          9 INNER ITERATIONS.
    ------------------------------------------------

 NO OUTPUT CONTROL FOR STRESS PERIOD   31   TIME STEP   25
 
 SOLVING FOR HEAD 
                                                   Max.-Head-Change                         Max.-Flux-Residual
  Residual-Control   Outer-Iter.   Inner-Iter.     Column Row Layer    Maximum-Head-Change  Column Row Layer    Maximum-Flux-Residual          L2-NORM 
          0                 1           2             5    8     1       0.3800309413E-01       5    8    1         0.2061989385E+01      0.4675664495E+01
          0                 2           2             4    7     1      -0.7233512093E-01       5    8    1        -0.3951162651E+01      0.9609250635E+01
          0                 3           2             4    7     1       0.4925080626E-02       5    8    1         0.2765372796E+00      0.6725494605E+00
          0                 4           2             4    7     1      -0.1959736827E-03       5    8    1        -0.1130970992E-01      0.2750667018E-01
          0                 5           1             4    7     1       0.2416440494E-05       5    8    1         0.1432822210E-03      0.3485616985E-03

    ------------------------------------------------
       NWT REQUIRED            5 OUTER ITERATIONS 
       AND A TOTAL OF          9 INNER ITERATIONS.
    ------------------------------------------------

 NO OUTPUT CONTROL FOR STRESS PERIOD   31   TIME STEP   26
 
 SOLVING FOR HEAD 
                                                   Max.-Head-Change                         Max.-Flux-Residual
  Residual-Control   Outer-Iter.   Inner-Iter.     Column Row Layer    Maximum-Head-Change  Column Row Layer    Maximum-Flux-Residual          L2-NORM 
          0                 1           2             5    8     1       0.3845265066E-01       5    8    1         0.2086254519E+01      0.4741235788E+01
          0                 2           2             4    7     1      -0.7238184443E-01       5    8    1        -0.3953589135E+01      0.9615377976E+01
          0                 3           2             4    7     1       0.4928262307E-02       5    8    1         0.2767077732E+00      0.6729793051E+00
          0                 4           2             4    7     1      -0.1961002847E-03       5    8    1        -0.1131674490E-01      0.2752433477E-01
          0                 5           1             4    7     1       0.2418001085E-05       5    8    1         0.1433755656E-03      0.3487886849E-03

    ------------------------------------------------
       NWT REQUIRED            5 OUTER ITERATIONS 
       AND A TOTAL OF          9 INNER ITERATIONS.
    ------------------------------------------------

 NO OUTPUT CONTROL FOR STRESS PERIOD   31   TIME STEP   27
 
 SOLVING FOR HEAD 
                                                   Max.-Head-Change                         Max.-Flux-Residual
  Residual-Control   Outer-Iter.   Inner-Iter.     Column Row Layer    Maximum-Head-Change  Column Row Layer    Maximum-Flux-Residual          L2-NORM 
          0                 1           2             5    8     1       0.3888567274E-01       5    8    1         0.2109609795E+01      0.4804929707E+01
          0                 2           2             4    7     1      -0.7242818663E-01       5    8    1        -0.3955924634E+01      0.9621351219E+01
          0                 3           2             4    7     1       0.4931418017E-02       5    8    1         0.2768718571E+00      0.6733983179E+00
          0                 4           2             4    7     1      -0.1962258536E-03       5    8    1        -0.1132351376E-01      0.2754155325E-01
          0                 5           1             4    7     1       0.2419549578E-05       5    8    1         0.1434652850E-03      0.3490109752E-03

    ------------------------------------------------
       NWT REQUIRED            5 OUTER ITERATIONS 
       AND A TOTAL OF          9 INNER ITERATIONS.
    ------------------------------------------------

 NO OUTPUT CONTROL FOR STRESS PERIOD   31   TIME STEP   28
 
 SOLVING FOR HEAD 
                                                   Max.-Head-Change                         Max.-Flux-Residual
  Residual-Control   Outer-Iter.   Inner-Iter.     Column Row Layer    Maximum-Head-Change  Column Row Layer    Maximum-Flux-Residual          L2-NORM 
          0                 1           2             5    8     1       0.3930324335E-01       5    8    1         0.2132115578E+01      0.4866825361E+01
          0                 2           2             4    7     1      -0.7247411073E-01       5    8    1        -0.3958175184E+01      0.9627175115E+01
          0                 3           2             4    7     1       0.4934545252E-02       5    8    1         0.2770299562E+00      0.6738068340E+00
          0                 4           2             4    7     1      -0.1963502892E-03       5    8    1        -0.1133003412E-01      0.2755833939E-01
          0                 5           1             4    7     1       0.2421084405E-05       5    8    1         0.1435515896E-03      0.3492285656E-03

    ------------------------------------------------
       NWT REQUIRED            5 OUTER ITERATIONS 
       AND A TOTAL OF          9 INNER ITERATIONS.
    ------------------------------------------------

 NO OUTPUT CONTROL FOR STRESS PERIOD   31   TIME STEP   29
 
 SOLVING FOR HEAD 
                                                   Max.-Head-Change                         Max.-Flux-Residual
  Residual-Control   Outer-Iter.   Inner-Iter.     Column Row Layer    Maximum-Head-Change  Column Row Layer    Maximum-Flux-Residual          L2-NORM 
          0                 1           2             5    8     1       0.3970608921E-01       5    8    1         0.2153812335E+01      0.4927002945E+01
          0                 2           2             4    7     1      -0.7251962276E-01       5    8    1        -0.3960344832E+01      0.9632856420E+01
          0                 3           2             4    7     1       0.4937644422E-02       5    8    1         0.2771823566E+00      0.6742053019E+00
          0                 4           2             4    7     1      -0.1964736082E-03       5    8    1        -0.1133631794E-01      0.2757470883E-01
          0                 5           1             4    7     1       0.2422604783E-05       5    8    1         0.1436346629E-03      0.3494405087E-03

    ------------------------------------------------
       NWT REQUIRED            5 OUTER ITERATIONS 
       AND A TOTAL OF          9 INNER ITERATIONS.
    ------------------------------------------------

 NO OUTPUT CONTROL FOR STRESS PERIOD   31   TIME STEP   30



 STREAM LISTING     PERIOD     31   STEP       30

 LAYER ROW COL. STREAM  RCH.  FLOW INTO     FLOW TO   FLOW OUT OF   OVRLND.     DIRECT     STREAM       STREAM     STREAM     STREAM   STREAMBED  STREAMBED
                SEG.NO.  NO.  STRM. RCH.    AQUIFER    STRM. RCH.    RUNOFF     PRECIP       ET          HEAD       DEPTH      WIDTH   CONDCTNC.   GRADIENT

   1    1    1     1     1    1.9000E+01  2.1427E-01   1.8786E+01  0.000E+00  0.000E+00  0.000E+00  1.09413E+03  1.082E+00  1.166E+01  5.249E-02  1.361E+00
   1    2    2     1     2    1.8786E+01  3.3054E-01   1.8455E+01  0.000E+00  0.000E+00  0.000E+00  1.08914E+03  1.077E+00  1.158E+01  8.107E-02  1.359E+00
   1    3    3     1     3    1.8455E+01  2.8064E-01   1.8175E+01  0.000E+00  0.000E+00  0.000E+00  1.08349E+03  1.072E+00  1.149E+01  6.892E-02  1.357E+00
   1    3    4     1     4    1.8175E+01  2.5740E-01   1.7917E+01  0.000E+00  0.000E+00  0.000E+00  1.07848E+03  1.068E+00  1.140E+01  6.328E-02  1.356E+00
   1    4    5     2     1    1.5917E+01  3.0542E-01   1.5612E+01  0.000E+00  0.000E+00  0.000E+00  1.07285E+03  9.157E-01  1.200E+01  7.800E-02  1.305E+00
   1    5    6     2     2    1.5612E+01  2.3438E-01   1.5377E+01  0.000E+00  0.000E+00  0.000E+00  1.06742E+03  9.063E-01  1.200E+01  6.000E-02  1.302E+00
   1    6    6     2     3    1.5377E+01  2.3388E-01   1.5143E+01  0.000E+00  0.000E+00  0.000E+00  1.06269E+03  8.980E-01  1.200E+01  6.000E-02  1.299E+00
   1    7    6     2     4    1.5143E+01  2.3338E-01   1.4910E+01  0.000E+00  0.000E+00  0.000E+00  1.05797E+03  8.897E-01  1.200E+01  6.000E-02  1.297E+00
   1    8    6     2     5    1.4910E+01  2.3289E-01   1.4677E+01  0.000E+00  0.000E+00  0.000E+00  1.05324E+03  8.814E-01  1.200E+01  6.000E-02  1.294E+00
   1    3    5     3     1    2.0000E+00  2.8252E-01   1.7175E+00  0.000E+00  0.000E+00  0.000E+00  1.07555E+03  1.909E+00  9.636E+00  7.227E-02  1.955E+00
   1    3    6     3     2    1.7175E+00  2.4905E-01   1.4684E+00  0.000E+00  0.000E+00  0.000E+00  1.07264E+03  1.727E+00  8.909E+00  6.682E-02  1.864E+00
   1    3    7     3     3    1.4684E+00  1.9718E-01   1.2712E+00  0.000E+00  0.000E+00  0.000E+00  1.06987E+03  1.555E+00  8.218E+00  5.547E-02  1.777E+00
   1    4    8     3     4    1.2712E+00  2.2567E-01   1.0456E+00  0.000E+00  0.000E+00  0.000E+00  1.06682E+03  1.364E+00  7.455E+00  6.709E-02  1.682E+00
   1    5    8     3     5    1.0456E+00  1.5790E-01   8.8768E-01  0.000E+00  0.000E+00  0.000E+00  1.06362E+03  1.164E+00  6.655E+00  4.991E-02  1.582E+00
   1    6    8     3     6    8.8768E-01  5.5980E-02   8.3170E-01  0.000E+00  0.000E+00  0.000E+00  1.06158E+03  1.036E+00  6.145E+00  1.844E-02  1.518E+00
   1    5   10     4     1    1.0000E+01  9.0919E-02   9.9091E+00  0.000E+00  0.000E+00  0.000E+00  1.07836E+03  6.368E-01  1.000E+01  2.500E-02  1.212E+00
   1    5    9     4     2    9.9091E+00  1.8158E-01   9.7275E+00  0.000E+00  0.000E+00  0.000E+00  1.07154E+03  6.315E-01  1.000E+01  5.000E-02  1.211E+00
   1    6    8     4     3    9.7275E+00  1.2689E-01   9.6006E+00  0.000E+00  0.000E+00  0.000E+00  1.06381E+03  6.256E-01  1.000E+01  3.500E-02  1.209E+00
   1    6    8     5     1    1.0432E+01  2.2686E-01   1.0205E+01  0.000E+00  0.000E+00  0.000E+00  1.05868E+03  6.790E-01  1.542E+01  6.166E-02  1.226E+00
   1    7    7     5     2    1.0205E+01  2.7894E-01   9.9265E+00  0.000E+00  0.000E+00  0.000E+00  1.05417E+03  6.732E-01  1.519E+01  7.594E-02  1.224E+00
   1    8    7     5     3    9.9265E+00  1.9221E-01   9.7343E+00  0.000E+00  0.000E+00  0.000E+00  1.04992E+03  6.676E-01  1.497E+01  5.241E-02  1.223E+00
   1    8    6     5     4    9.7343E+00  1.3577E-01   9.5985E+00  0.000E+00  0.000E+00  0.000E+00  1.04691E+03  6.637E-01  1.482E+01  3.706E-02  1.221E+00
   1    9    6     6     1    2.4276E+01  2.5176E-01   2.4024E+01  0.000E+00  0.000E+00  0.000E+00  1.04392E+03  1.196E+00  1.200E+01  6.000E-02  1.399E+00
   1   10    7     6     2    2.4024E+01  2.5131E-01   2.3773E+01  0.000E+00  0.000E+00  0.000E+00  1.03937E+03  1.188E+00  1.200E+01  6.000E-02  1.396E+00
   1   11    7     6     3    2.3773E+01  2.5086E-01   2.3522E+01  0.000E+00  0.000E+00  0.000E+00  1.03482E+03  1.181E+00  1.200E+01  6.000E-02  1.394E+00
   1   12    7     6     4    2.3522E+01  2.5041E-01   2.3271E+01  0.000E+00  0.000E+00  0.000E+00  1.03026E+03  1.173E+00  1.200E+01  6.000E-02  1.391E+00
   1   13    7     6     5    2.3271E+01  6.2658E-03   2.3265E+01  0.000E+00  0.000E+00  0.000E+00  1.02708E+03  1.170E+00  1.200E+01  2.400E-02  8.703E-02
   1   14    9     7     1    1.5000E+02  1.3476E+00   1.4865E+02  0.000E+00  0.000E+00  0.000E+00  1.03987E+03  2.288E+00  5.529E+01  5.593E-01  8.032E-01
   1   13    8     7     2    1.4865E+02  1.9026E+00   1.4675E+02  0.000E+00  0.000E+00  0.000E+00  1.03478E+03  2.279E+00  5.526E+01  6.148E-01  1.032E+00
   1   13    7     7     3    1.4675E+02  1.6035E+00   1.4515E+02  0.000E+00  0.000E+00  0.000E+00  1.02969E+03  2.270E+00  5.521E+01  5.584E-01  9.571E-01
   1   13    6     8     1    1.6841E+02  1.0455E+00   1.6737E+02  0.000E+00  0.000E+00  0.000E+00  1.02481E+03  2.938E+00  4.261E+01  4.342E-01  8.027E-01
   1   13    5     8     2    1.6737E+02  2.9183E-01   1.6707E+02  0.000E+00  0.000E+00  0.000E+00  1.01856E+03  2.934E+00  4.254E+01  4.335E-01  2.244E-01
   1   13    4     8     3    1.6707E+02 -2.0477E+00   1.6912E+02  0.000E+00  0.000E+00  0.000E+00  1.01231E+03  2.940E+00  4.263E+01  4.344E+00 -1.571E-01
   1   13    3     8     4    1.6912E+02 -3.4580E+00   1.7258E+02  0.000E+00  0.000E+00  0.000E+00  1.00608E+03  2.958E+00  4.289E+01  4.370E+00 -2.637E-01
   1   13    2     8     5    1.7258E+02 -2.5321E+00   1.7511E+02  0.000E+00  0.000E+00  0.000E+00  9.99852E+02  2.977E+00  4.317E+01  4.399E+00 -1.919E-01
   1   13    1     8     6    1.7511E+02 -1.9719E+00   1.7708E+02  0.000E+00  0.000E+00  0.000E+00  9.94866E+02  2.991E+00  4.338E+01  2.652E+00 -2.478E-01





UNSATURATED ZONE PACKAGE VOLUMETRIC BUDGET FOR  TIME STEP    30 STRESS PERIOD   31
  ------------------------------------------------------------------------------



     CUMULATIVE VOLUMES      L**3       RATES FOR THIS TIME STEP      L**3/T
     ------------------                 ------------------------

           IN:                                      IN:
           ---                                      ---
        INFILTRATION =  1025565344.6356          INFILTRATION =          23.3175

          OUT:                                     OUT:
          ----                                     ----
              UZF ET =   949624280.6713                UZF ET =          23.3175
        UZF RECHARGE =    75864354.0216          UZF RECHARGE =       0.0000E+00

            IN - OUT =       76709.9427              IN - OUT =       0.0000E+00

          STORAGE:                                 STORAGE:
          --------                                 --------
      STORAGE CHANGE =       76711.2091        STORAGE CHANGE =       1.0639E-11

 PERCENT DISCREPANCY IS DIFFERENCE BETWEEN IN-OUT MINUS CHANGE IN STORAGE
 DIVIDED BY THE AVERAGE OF IN AND OUT TIMES 100

 PERCENT DISCREPANCY =           0.00     PERCENT DISCREPANCY =           0.00






1
  VOLUMETRIC BUDGET FOR AGRICULTURAL FIELDS AT  END OF TIME STEP   30, STRESS PERIOD  31
  ------------------------------------------------------------------------------

     CUMULATIVE VOLUMES      L**3       RATES FOR THIS TIME STEP      L**3/T
     ------------------                 ------------------------

           IN:                                      IN:
           ---                                      ---
               AG WELLS  =   958622784.0000                 AG WELLS  =          22.4700
      DIVERSION SEGMENTS =           0.0000        DIVERSION SEGMENTS =           0.0000
       IRRIGATION PONDS  =           0.0000         IRRIGATION PONDS  =           0.0000
           GW IRRIGATION =           0.0000             GW IRRIGATION =           0.0000
           SW IRRIGATION =           0.0000             SW IRRIGATION =           0.0000
        SYSTEM LOSSES GW =           0.0000          SYSTEM LOSSES GW =           0.0000
        SYSTEM LOSSES SW =           0.0000          SYSTEM LOSSES SW =           0.0000

                TOTAL IN =   958622784.0000                  TOTAL IN =          22.4700

          OUT:                                     OUT:
          ----                                     ----
               AG WELLS  =           0.0000                 AG WELLS  =           0.0000
      DIVERSION SEGMENTS =           0.0000        DIVERSION SEGMENTS =           0.0000
       IRRIGATION PONDS  =           0.0000         IRRIGATION PONDS  =           0.0000
           GW IRRIGATION =   958622784.0000             GW IRRIGATION =          22.4700
           SW IRRIGATION =           0.0000             SW IRRIGATION =           0.0000
        SYSTEM LOSSES GW =           0.0000          SYSTEM LOSSES GW =           0.0000
        SYSTEM LOSSES SW =           0.0000          SYSTEM LOSSES SW =           0.0000

               TOTAL OUT =   958622784.0000                 TOTAL OUT =          22.4700

                IN - OUT =           0.0000                  IN - OUT =           0.0000

     PERCENT DISCREPANCY =           0.00         PERCENT DISCREPANCY =           0.00



1
  VOLUMETRIC BUDGET FOR ENTIRE MODEL AT END OF TIME STEP   30, STRESS PERIOD  31
  ------------------------------------------------------------------------------

     CUMULATIVE VOLUMES      L**3       RATES FOR THIS TIME STEP      L**3/T
     ------------------                 ------------------------

           IN:                                      IN:
           ---                                      ---
             STORAGE     =  1272017408.0000               STORAGE     =          20.6332
       CONSTANT HEAD     =           0.0000         CONSTANT HEAD     =           0.0000
     HEAD DEP BOUNDS     =    22560264.0000       HEAD DEP BOUNDS     =           0.2866
      STREAM LEAKAGE     =   971318208.0000        STREAM LEAKAGE     =          11.9259
        UZF RECHARGE     =    75864392.0000          UZF RECHARGE     =           0.0000
               GW ET     =           0.0000                 GW ET     =           0.0000
     SURFACE LEAKAGE     =           0.0000       SURFACE LEAKAGE     =           0.0000
           AG WELLS      =           0.0000             AG WELLS      =           0.0000

                TOTAL IN =  2341760256.0000                  TOTAL IN =          32.8456

          OUT:                                     OUT:
          ----                                     ----
             STORAGE     =   527231424.0000               STORAGE     =       7.6729E-02
       CONSTANT HEAD     =           0.0000         CONSTANT HEAD     =           0.0000
     HEAD DEP BOUNDS     =    23151088.0000       HEAD DEP BOUNDS     =           0.2892
      STREAM LEAKAGE     =   815150912.0000        STREAM LEAKAGE     =          10.0097
        UZF RECHARGE     =           0.0000          UZF RECHARGE     =           0.0000
               GW ET     =    17607784.0000                 GW ET     =           0.0000
     SURFACE LEAKAGE     =           0.0000       SURFACE LEAKAGE     =           0.0000
           AG WELLS      =   958622784.0000             AG WELLS      =          22.4700

               TOTAL OUT =  2341764096.0000                 TOTAL OUT =          32.8456

                IN - OUT =       -3840.0000                  IN - OUT =       1.5259E-05

     PERCENT DISCREPANCY =          -0.00         PERCENT DISCREPANCY =           0.00






         TIME SUMMARY AT END OF TIME STEP   30 IN STRESS PERIOD   31
                    SECONDS     MINUTES      HOURS       DAYS        YEARS
                    -----------------------------------------------------------
   TIME STEP LENGTH  87667.      1461.1      24.352      1.0147     2.77799E-03
 STRESS PERIOD TIME 2.63000E+06  43833.      730.56      30.440     8.33397E-02
         TOTAL TIME 7.89864E+07 1.31644E+06  21941.      914.20      2.5029    
1
1
                            STRESS PERIOD NO.   32, LENGTH =   2630000.    
                            -----------------------------------------------

                              NUMBER OF TIME STEPS =    30

                               MULTIPLIER FOR DELT =     1.000

                            INITIAL TIME STEP SIZE =   87666.66    

 REUSING NON-PARAMETER GHB CELLS FROM LAST STRESS PERIOD

      2 GHB CELLS

 REUSING STREAM SEGMENT DATA FROM LAST STRESS PERIOD



            AREAL INFILTRATION RATE
 READING ON UNIT   19 WITH FORMAT: (FREE)              

            1           2           3           4           5           6           7           8           9          10
 ........................................................................................................................
   1   1.0000E-10  2.0000E-10   0.000       0.000       0.000       0.000       0.000       0.000       0.000       0.000    
   2   2.0000E-10  1.0000E-10  2.0000E-10   0.000       0.000      8.0000E-10  8.0000E-10  5.0000E-10   0.000       0.000    
   3    0.000      5.0000E-10  1.0000E-10  1.0000E-10  8.0000E-10  8.0000E-10  5.0000E-10  5.0000E-10   0.000       0.000    
   4   8.0000E-10  5.0000E-10  1.0000E-10  1.0000E-10  1.0000E-10  1.0000E-10  1.0000E-10  1.0000E-10  2.0000E-10   0.000    
   5   8.0000E-10  5.0000E-10  1.0000E-10  1.0000E-10  1.0000E-10  1.0000E-10  1.0000E-10  1.0000E-10  1.0000E-10  1.0000E-10
   6   8.0000E-10  5.0000E-10  5.0000E-10  2.0000E-10  2.0000E-10  1.0000E-10  1.0000E-10  1.0000E-10  1.0000E-10  5.0000E-10
   7   8.0000E-10  5.0000E-10  5.0000E-10  2.0000E-10  2.0000E-10  1.0000E-10  1.0000E-10  2.0000E-10  2.0000E-10   0.000    
   8    0.000      5.0000E-10  5.0000E-10  2.0000E-10  2.0000E-10  1.0000E-10  1.0000E-10  2.0000E-10  5.0000E-10   0.000    
   9    0.000      5.0000E-10  5.0000E-10  2.0000E-10  2.0000E-10  1.0000E-10  1.0000E-10  2.0000E-10  5.0000E-10   0.000    
  10    0.000      5.0000E-10  5.0000E-10  2.0000E-10  2.0000E-10  1.0000E-10  1.0000E-10  2.0000E-10  5.0000E-10  8.0000E-10
  11    0.000      1.0000E-10  1.0000E-10  1.0000E-10  1.0000E-10  1.0000E-10  1.0000E-10  2.0000E-10  5.0000E-10   0.000    
  12   1.0000E-10  1.0000E-10  1.0000E-10  1.0000E-10  1.0000E-10  1.0000E-10  1.0000E-10  1.0000E-10  2.0000E-10   0.000    
  13   1.0000E-10  1.0000E-10  2.0000E-10  2.0000E-10  2.0000E-10  2.0000E-10  2.0000E-10  1.0000E-10  1.0000E-10   0.000    
  14    0.000      2.0000E-10  5.0000E-10  5.0000E-10  5.0000E-10  5.0000E-10  5.0000E-10  2.0000E-10  1.0000E-10   0.000    
  15    0.000       0.000      8.0000E-10  8.0000E-10  8.0000E-10  8.0000E-10   0.000       0.000       0.000       0.000    

                  ET RATE =  4.000000E-07

 USING ET EXTINCTION DEPTH FROM PREVIOUS STRESS PERIOD. CURRENT PERIOD IS:      32

 USING EXTINCTION WATER CONTENT FROM PREVIOUS STRESS PERIOD. CURRENT PERIOD IS:      32

 USING AIR ENTRY PRESSURE FROM PREVIOUS STRESS PERIOD. CURRENT PERIOD IS:      32

 USING ROOT PRESSURE HEAD FROM PREVIOUS STRESS PERIOD. CURRENT PERIOD IS:      32

 USING ROOT ACTIVITY FROM PREVIOUS STRESS PERIOD. CURRENT PERIOD IS:      32

 PROCESSING AG STRESS PERIOD DATA

 READING AG STRESS PERIOD DATA

 READING IRRIGATION WELL

 NO IRRPOND OR REUSING IRRPOND DATA FROM LAST STRESS PERIOD

 END PROCESSING AG STRESS PERIOD DATA OPTIONS
 
 SOLVING FOR HEAD 
                                                   Max.-Head-Change                         Max.-Flux-Residual
  Residual-Control   Outer-Iter.   Inner-Iter.     Column Row Layer    Maximum-Head-Change  Column Row Layer    Maximum-Flux-Residual          L2-NORM 
          0                 1           2             4    7     1      -0.1628706140E+00       4    7    1        -0.8516394715E+01      0.1994589873E+02
          0                 2           2             6    7     1       0.1250757945E-02       6    7    1         0.6864832711E-01      0.1846819406E+00
          0                 3           2             5    6     1      -0.1202464559E-01       4    7    1        -0.6479146502E+00      0.1579695456E+01
          0                 4           2             4    7     1      -0.9005785238E-02       5    7    1        -0.4981718789E+00      0.1187187757E+01
          0                 5           2             5    6     1       0.8350480232E-03       5    6    1         0.4674684935E-01      0.7718831967E-01
          0                 6           1             5    6     1      -0.5686371408E-04       5    6    1        -0.3310595801E-02      0.4700929385E-02

    ------------------------------------------------
       NWT REQUIRED            6 OUTER ITERATIONS 
       AND A TOTAL OF         11 INNER ITERATIONS.
    ------------------------------------------------

 NO OUTPUT CONTROL FOR STRESS PERIOD   32   TIME STEP    1
 
 SOLVING FOR HEAD 
                                                   Max.-Head-Change                         Max.-Flux-Residual
  Residual-Control   Outer-Iter.   Inner-Iter.     Column Row Layer    Maximum-Head-Change  Column Row Layer    Maximum-Flux-Residual          L2-NORM 
          0                 1           2             5    8     1       0.3689909794E-01       5    8    1         0.2010845704E+01      0.4571975908E+01
          0                 2           2             4    7     1      -0.1803519961E+00       5    8    1        -0.9767303755E+01      0.2383476334E+02
          0                 3           2             4    7     1      -0.2372844952E-02       4    7    1        -0.1274741304E+00      0.3035923461E+00
          0                 4           2             4    7     1      -0.1185804929E-01       5    8    1        -0.6368520184E+00      0.1559519403E+01
          0                 5           2             4    7     1      -0.8932122806E-02       4    7    1        -0.4793855976E+00      0.1174216649E+01
          0                 6           2             4    7     1       0.6085046254E-03       4    7    1         0.3357084144E-01      0.8222299797E-01
          0                 7           1             4    7     1      -0.2423019597E-04       4    7    1        -0.1373976171E-02      0.3365189080E-02

    ------------------------------------------------
       NWT REQUIRED            7 OUTER ITERATIONS 
       AND A TOTAL OF         13 INNER ITERATIONS.
    ------------------------------------------------

 NO OUTPUT CONTROL FOR STRESS PERIOD   32   TIME STEP    2
 
 SOLVING FOR HEAD 
                                                   Max.-Head-Change                         Max.-Flux-Residual
  Residual-Control   Outer-Iter.   Inner-Iter.     Column Row Layer    Maximum-Head-Change  Column Row Layer    Maximum-Flux-Residual          L2-NORM 
          0                 1           2             5    8     1       0.4143164363E-01       5    8    1         0.2260235545E+01      0.5096294017E+01
          0                 2           2             4    7     1      -0.1804733906E+00       5    8    1        -0.9791777029E+01      0.2387538858E+02
          0                 3           2             4    7     1      -0.2364380287E-02       4    7    1        -0.1270421533E+00      0.3008791424E+00
          0                 4           2             4    7     1      -0.1185867051E-01       5    8    1        -0.6369737117E+00      0.1559719659E+01
          0                 5           2             4    7     1      -0.8932102526E-02       4    7    1        -0.4793834626E+00      0.1174202482E+01
          0                 6           2             4    7     1       0.6085032437E-03       4    7    1         0.3357069069E-01      0.8222200805E-01
          0                 7           1             4    7     1      -0.2423014082E-04       4    7    1        -0.1373969886E-02      0.3365150055E-02

    ------------------------------------------------
       NWT REQUIRED            7 OUTER ITERATIONS 
       AND A TOTAL OF         13 INNER ITERATIONS.
    ------------------------------------------------

 NO OUTPUT CONTROL FOR STRESS PERIOD   32   TIME STEP    3
 
 SOLVING FOR HEAD 
                                                   Max.-Head-Change                         Max.-Flux-Residual
  Residual-Control   Outer-Iter.   Inner-Iter.     Column Row Layer    Maximum-Head-Change  Column Row Layer    Maximum-Flux-Residual          L2-NORM 
          0                 1           2             5    8     1       0.4572482370E-01       5    8    1         0.2496224218E+01      0.5601984470E+01
          0                 2           2             4    7     1      -0.1806094643E+00       5    8    1        -0.9815375551E+01      0.2391589088E+02
          0                 3           2             4    7     1      -0.2354890360E-02       4    7    1        -0.1265531498E+00      0.2982044084E+00
          0                 4           2             4    7     1      -0.1185936516E-01       5    8    1        -0.6370909930E+00      0.1559919090E+01
          0                 5           2             4    7     1      -0.8932078449E-02       4    7    1        -0.4793810483E+00      0.1174188386E+01
          0                 6           2             4    7     1       0.6085016034E-03       4    7    1         0.3357052042E-01      0.8222102303E-01
          0                 7           1             4    7     1      -0.2423007601E-04       4    7    1        -0.1373962801E-02      0.3365111704E-02

    ------------------------------------------------
       NWT REQUIRED            7 OUTER ITERATIONS 
       AND A TOTAL OF         13 INNER ITERATIONS.
    ------------------------------------------------

 NO OUTPUT CONTROL FOR STRESS PERIOD   32   TIME STEP    4
 
 SOLVING FOR HEAD 
                                                   Max.-Head-Change                         Max.-Flux-Residual
  Residual-Control   Outer-Iter.   Inner-Iter.     Column Row Layer    Maximum-Head-Change  Column Row Layer    Maximum-Flux-Residual          L2-NORM 
          0                 1           2             5    8     1       0.4978719507E-01       5    8    1         0.2719319571E+01      0.6087954426E+01
          0                 2           2             4    7     1      -0.1807501616E+00       5    8    1        -0.9837684718E+01      0.2395507599E+02
          0                 3           2             4    7     1      -0.2345078886E-02       4    7    1        -0.1260450254E+00      0.2956463728E+00
          0                 4           2             4    7     1      -0.1186008385E-01       5    8    1        -0.6372018416E+00      0.1560111129E+01
          0                 5           2             4    7     1      -0.8932053930E-02       4    7    1        -0.4793773723E+00      0.1174174292E+01
          0                 6           2             4    7     1       0.6084999326E-03       4    7    1         0.3357132321E-01      0.8222047268E-01
          0                 7           1             4    7     1      -0.2423000923E-04       4    7    1        -0.1374067540E-02      0.3365114364E-02

    ------------------------------------------------
       NWT REQUIRED            7 OUTER ITERATIONS 
       AND A TOTAL OF         13 INNER ITERATIONS.
    ------------------------------------------------

 NO OUTPUT CONTROL FOR STRESS PERIOD   32   TIME STEP    5
 
 SOLVING FOR HEAD 
                                                   Max.-Head-Change                         Max.-Flux-Residual
  Residual-Control   Outer-Iter.   Inner-Iter.     Column Row Layer    Maximum-Head-Change  Column Row Layer    Maximum-Flux-Residual          L2-NORM 
          0                 1           2             5    8     1       0.5363461956E-01       5    8    1         0.2930415823E+01      0.6554600491E+01
          0                 2           2             4    7     1      -0.1808949443E+00       5    8    1        -0.9858793958E+01      0.2399299960E+02
          0                 3           2             4    7     1      -0.2334983354E-02       4    7    1        -0.1255208233E+00      0.2931957500E+00
          0                 4           2             4    7     1      -0.1186082382E-01       5    8    1        -0.6373067040E+00      0.1560297478E+01
          0                 5           2             4    7     1      -0.8932029048E-02       4    7    1        -0.4793748097E+00      0.1174161139E+01
          0                 6           2             4    7     1       0.6084982374E-03       4    7    1         0.3357114403E-01      0.8221955380E-01
          0                 7           1             4    7     1      -0.2422994165E-04       4    7    1        -0.1374060223E-02      0.3365078617E-02

    ------------------------------------------------
       NWT REQUIRED            7 OUTER ITERATIONS 
       AND A TOTAL OF         13 INNER ITERATIONS.
    ------------------------------------------------

 NO OUTPUT CONTROL FOR STRESS PERIOD   32   TIME STEP    6
 
 SOLVING FOR HEAD 
                                                   Max.-Head-Change                         Max.-Flux-Residual
  Residual-Control   Outer-Iter.   Inner-Iter.     Column Row Layer    Maximum-Head-Change  Column Row Layer    Maximum-Flux-Residual          L2-NORM 
          0                 1           2             5    8     1       0.5728182288E-01       5    8    1         0.3130343237E+01      0.7002570912E+01
          0                 2           2             4    7     1      -0.1810433719E+00       5    8    1        -0.9878786302E+01      0.2402971557E+02
          0                 3           2             4    7     1      -0.2324634446E-02       4    7    1        -0.1249813223E+00      0.2908444151E+00
          0                 4           2             4    7     1      -0.1186158281E-01       5    8    1        -0.6374059954E+00      0.1560476366E+01
          0                 5           2             4    7     1      -0.8932003871E-02       4    7    1        -0.4793721719E+00      0.1174147612E+01
          0                 6           2             4    7     1       0.6084965219E-03       4    7    1         0.3357095959E-01      0.8221935460E-01
          0                 7           1             4    7     1      -0.2422987280E-04       4    7    1        -0.1374052659E-02      0.3365111089E-02

    ------------------------------------------------
       NWT REQUIRED            7 OUTER ITERATIONS 
       AND A TOTAL OF         13 INNER ITERATIONS.
    ------------------------------------------------

 NO OUTPUT CONTROL FOR STRESS PERIOD   32   TIME STEP    7
 
 SOLVING FOR HEAD 
                                                   Max.-Head-Change                         Max.-Flux-Residual
  Residual-Control   Outer-Iter.   Inner-Iter.     Column Row Layer    Maximum-Head-Change  Column Row Layer    Maximum-Flux-Residual          L2-NORM 
          0                 1           2             5    8     1       0.6074250106E-01       5    8    1         0.3319873157E+01      0.7432645159E+01
          0                 2           2             4    7     1      -0.1811949802E+00       5    8    1        -0.9897738887E+01      0.2406527559E+02
          0                 3           2             4    7     1      -0.2314064509E-02       4    7    1        -0.1244283628E+00      0.2885837384E+00
          0                 4           2             4    7     1      -0.1186235842E-01       5    8    1        -0.6375001010E+00      0.1560642833E+01
          0                 5           2             4    7     1      -0.8931978469E-02       4    7    1        -0.4793694680E+00      0.1174130591E+01
          0                 6           2             4    7     1       0.6084947912E-03       5    7    1         0.3357117517E-01      0.8222258845E-01
          0                 7           1             4    7     1      -0.2422980395E-04       5    7    1        -0.1374161938E-02      0.3365432388E-02

    ------------------------------------------------
       NWT REQUIRED            7 OUTER ITERATIONS 
       AND A TOTAL OF         13 INNER ITERATIONS.
    ------------------------------------------------

 NO OUTPUT CONTROL FOR STRESS PERIOD   32   TIME STEP    8
 
 SOLVING FOR HEAD 
                                                   Max.-Head-Change                         Max.-Flux-Residual
  Residual-Control   Outer-Iter.   Inner-Iter.     Column Row Layer    Maximum-Head-Change  Column Row Layer    Maximum-Flux-Residual          L2-NORM 
          0                 1           2             5    8     1       0.6402913640E-01       5    8    1         0.3499707894E+01      0.7845649187E+01
          0                 2           2             4    7     1      -0.1813493736E+00       5    8    1        -0.9915721949E+01      0.2409972874E+02
          0                 3           2             4    7     1      -0.2303301084E-02       4    7    1        -0.1238635162E+00      0.2863916373E+00
          0                 4           2             4    7     1      -0.1186314864E-01       5    8    1        -0.6375893716E+00      0.1560806272E+01
          0                 5           2             4    7     1      -0.8931952902E-02       4    7    1        -0.4793667057E+00      0.1174116120E+01
          0                 6           2             4    7     1       0.6084930496E-03       5    7    1         0.3357086851E-01      0.8222405985E-01
          0                 7           1             4    7     1      -0.2422973499E-04       4    6    1        -0.1374169117E-02      0.3365593072E-02

    ------------------------------------------------
       NWT REQUIRED            7 OUTER ITERATIONS 
       AND A TOTAL OF         13 INNER ITERATIONS.
    ------------------------------------------------

 NO OUTPUT CONTROL FOR STRESS PERIOD   32   TIME STEP    9
 
 SOLVING FOR HEAD 
                                                   Max.-Head-Change                         Max.-Flux-Residual
  Residual-Control   Outer-Iter.   Inner-Iter.     Column Row Layer    Maximum-Head-Change  Column Row Layer    Maximum-Flux-Residual          L2-NORM 
          0                 1           2             5    8     1       0.6715308306E-01       5    8    1         0.3670486841E+01      0.8242410055E+01
          0                 2           2             4    7     1      -0.1815061449E+00       5    8    1        -0.9932799428E+01      0.2413312011E+02
          0                 3           2             4    7     1      -0.2292372561E-02       4    7    1        -0.1232884042E+00      0.2842749266E+00
          0                 4           2             4    7     1      -0.1186395138E-01       5    8    1        -0.6376741266E+00      0.1560968756E+01
          0                 5           2             4    7     1      -0.8931927242E-02       4    7    1        -0.4793638930E+00      0.1174104718E+01
          0                 6           2             4    7     1       0.6084913016E-03       5    7    1         0.3357056763E-01      0.8222326418E-01
          0                 7           1             4    7     1      -0.2422966522E-04       4    6    1        -0.1374156045E-02      0.3365559940E-02

    ------------------------------------------------
       NWT REQUIRED            7 OUTER ITERATIONS 
       AND A TOTAL OF         13 INNER ITERATIONS.
    ------------------------------------------------

 NO OUTPUT CONTROL FOR STRESS PERIOD   32   TIME STEP   10
 
 SOLVING FOR HEAD 
                                                   Max.-Head-Change                         Max.-Flux-Residual
  Residual-Control   Outer-Iter.   Inner-Iter.     Column Row Layer    Maximum-Head-Change  Column Row Layer    Maximum-Flux-Residual          L2-NORM 
          0                 1           2             5    8     1       0.7012522739E-01       5    8    1         0.3832822102E+01      0.8623780614E+01
          0                 2           2             4    7     1      -0.1816649378E+00       5    8    1        -0.9949032538E+01      0.2416549777E+02
          0                 3           2             4    7     1      -0.2281303720E-02       4    7    1        -0.1227044393E+00      0.2822205285E+00
          0                 4           2             4    7     1      -0.1186476479E-01       5    8    1        -0.6377444630E+00      0.1561112667E+01
          0                 5           2             4    7     1      -0.8931901519E-02       4    7    1        -0.4793610366E+00      0.1174085849E+01
          0                 6           2             4    7     1       0.6084895492E-03       5    6    1         0.3357060016E-01      0.8222906841E-01
          0                 7           1             4    7     1      -0.2422959556E-04       5    6    1        -0.1374255070E-02      0.3366046206E-02

    ------------------------------------------------
       NWT REQUIRED            7 OUTER ITERATIONS 
       AND A TOTAL OF         13 INNER ITERATIONS.
    ------------------------------------------------

 NO OUTPUT CONTROL FOR STRESS PERIOD   32   TIME STEP   11
 
 SOLVING FOR HEAD 
                                                   Max.-Head-Change                         Max.-Flux-Residual
  Residual-Control   Outer-Iter.   Inner-Iter.     Column Row Layer    Maximum-Head-Change  Column Row Layer    Maximum-Flux-Residual          L2-NORM 
          0                 1           2             5    8     1       0.7295534098E-01       5    8    1         0.3987262697E+01      0.8990619787E+01
          0                 2           2             4    7     1      -0.1818254100E+00       5    8    1        -0.9964476181E+01      0.2419690080E+02
          0                 3           2             4    7     1      -0.2270118425E-02       4    7    1        -0.1221129910E+00      0.2802282222E+00
          0                 4           2             4    7     1      -0.1186558711E-01       5    8    1        -0.6378204581E+00      0.1561264511E+01
          0                 5           2             4    7     1      -0.8931875795E-02       4    7    1        -0.4793581435E+00      0.1174075232E+01
          0                 6           2             4    7     1       0.6084877967E-03       5    6    1         0.3357023799E-01      0.8222832640E-01
          0                 7           1             4    7     1      -0.2422952579E-04       5    6    1        -0.1374240278E-02      0.3366016029E-02

    ------------------------------------------------
       NWT REQUIRED            7 OUTER ITERATIONS 
       AND A TOTAL OF         13 INNER ITERATIONS.
    ------------------------------------------------

 NO OUTPUT CONTROL FOR STRESS PERIOD   32   TIME STEP   12
 
 SOLVING FOR HEAD 
                                                   Max.-Head-Change                         Max.-Flux-Residual
  Residual-Control   Outer-Iter.   Inner-Iter.     Column Row Layer    Maximum-Head-Change  Column Row Layer    Maximum-Flux-Residual          L2-NORM 
          0                 1           2             5    8     1       0.7565272246E-01       5    8    1         0.4134330721E+01      0.9343596446E+01
          0                 2           2             4    7     1      -0.1819872421E+00       5    8    1        -0.9979182570E+01      0.2422737097E+02
          0                 3           2             4    7     1      -0.2258838909E-02       4    7    1        -0.1215153345E+00      0.2782988845E+00
          0                 4           2             4    7     1      -0.1186641672E-01       5    8    1        -0.6378802450E+00      0.1561406292E+01
          0                 5           2             4    7     1      -0.8931850116E-02       4    7    1        -0.4793552198E+00      0.1174061600E+01
          0                 6           2             4    7     1       0.6084860470E-03       5    8    1         0.3357034589E-01      0.8223039125E-01
          0                 7           1             4    7     1      -0.2422945614E-04       5    8    1        -0.1374275491E-02      0.3366205809E-02

    ------------------------------------------------
       NWT REQUIRED            7 OUTER ITERATIONS 
       AND A TOTAL OF         13 INNER ITERATIONS.
    ------------------------------------------------

 NO OUTPUT CONTROL FOR STRESS PERIOD   32   TIME STEP   13
 
 SOLVING FOR HEAD 
                                                   Max.-Head-Change                         Max.-Flux-Residual
  Residual-Control   Outer-Iter.   Inner-Iter.     Column Row Layer    Maximum-Head-Change  Column Row Layer    Maximum-Flux-Residual          L2-NORM 
          0                 1           2             5    8     1       0.7822553768E-01       5    8    1         0.4274484976E+01      0.9683422850E+01
          0                 2           2             4    7     1      -0.1821501634E+00       5    8    1        -0.9993197585E+01      0.2425694567E+02
          0                 3           2             4    7     1      -0.2247484026E-02       4    7    1        -0.1209125525E+00      0.2764255099E+00
          0                 4           2             4    7     1      -0.1186725222E-01       5    8    1        -0.6379486072E+00      0.1561549007E+01
          0                 5           2             4    7     1      -0.8931824520E-02       4    7    1        -0.4793522708E+00      0.1174051632E+01
          0                 6           2             4    7     1       0.6084843033E-03       5    8    1         0.3357001262E-01      0.8222969422E-01
          0                 7           1             4    7     1      -0.2422938660E-04       5    8    1        -0.1374261895E-02      0.3366177324E-02

    ------------------------------------------------
       NWT REQUIRED            7 OUTER ITERATIONS 
       AND A TOTAL OF         13 INNER ITERATIONS.
    ------------------------------------------------

 NO OUTPUT CONTROL FOR STRESS PERIOD   32   TIME STEP   14
 
 SOLVING FOR HEAD 
                                                   Max.-Head-Change                         Max.-Flux-Residual
  Residual-Control   Outer-Iter.   Inner-Iter.     Column Row Layer    Maximum-Head-Change  Column Row Layer    Maximum-Flux-Residual          L2-NORM 
          0                 1           2             5    8     1       0.8068190472E-01       5    8    1         0.4408180036E+01      0.1001078565E+02
          0                 2           2             5    7     1      -0.1823150221E+00       5    8    1        -0.1000656668E+02      0.2428566194E+02
          0                 3           2             4    7     1      -0.2236074793E-02       4    7    1        -0.1203058539E+00      0.2746093846E+00
          0                 4           2             4    7     1      -0.1186809205E-01       5    8    1        -0.6380138255E+00      0.1561687593E+01
          0                 5           2             4    7     1      -0.8931799053E-02       4    7    1        -0.4793493024E+00      0.1174041953E+01
          0                 6           2             4    7     1       0.6084825686E-03       5    8    1         0.3356969462E-01      0.8222901724E-01
          0                 7           1             4    7     1      -0.2422931741E-04       5    8    1        -0.1374248920E-02      0.3366149654E-02

    ------------------------------------------------
       NWT REQUIRED            7 OUTER ITERATIONS 
       AND A TOTAL OF         13 INNER ITERATIONS.
    ------------------------------------------------

 NO OUTPUT CONTROL FOR STRESS PERIOD   32   TIME STEP   15
 
 SOLVING FOR HEAD 
                                                   Max.-Head-Change                         Max.-Flux-Residual
  Residual-Control   Outer-Iter.   Inner-Iter.     Column Row Layer    Maximum-Head-Change  Column Row Layer    Maximum-Flux-Residual          L2-NORM 
          0                 1           2             5    8     1       0.8302904814E-01       5    8    1         0.4535821240E+01      0.1032633437E+02
          0                 2           2             5    7     1      -0.1825196349E+00       5    8    1        -0.1001933040E+02      0.2431355479E+02
          0                 3           2             4    7     1      -0.2224628030E-02       4    7    1        -0.1196962066E+00      0.2728476378E+00
          0                 4           2             4    7     1      -0.1186893497E-01       5    8    1        -0.6380760971E+00      0.1561822220E+01
          0                 5           2             4    7     1      -0.8931773747E-02       4    7    1        -0.4793463195E+00      0.1174032549E+01
          0                 6           2             4    7     1       0.6084808446E-03       5    8    1         0.3356939091E-01      0.8222836007E-01
          0                 7           1             4    7     1      -0.2422924891E-04       5    8    1        -0.1374236517E-02      0.3366137241E-02

    ------------------------------------------------
       NWT REQUIRED            7 OUTER ITERATIONS 
       AND A TOTAL OF         13 INNER ITERATIONS.
    ------------------------------------------------

 NO OUTPUT CONTROL FOR STRESS PERIOD   32   TIME STEP   16
 
 SOLVING FOR HEAD 
                                                   Max.-Head-Change                         Max.-Flux-Residual
  Residual-Control   Outer-Iter.   Inner-Iter.     Column Row Layer    Maximum-Head-Change  Column Row Layer    Maximum-Flux-Residual          L2-NORM 
          0                 1           2             5    8     1       0.8527351970E-01       5    8    1         0.4657775390E+01      0.1063066897E+02
          0                 2           2             5    7     1      -0.1827197975E+00       5    8    1        -0.1003152542E+02      0.2434065687E+02
          0                 3           2             4    7     1      -0.2213160122E-02       4    7    1        -0.1190845582E+00      0.2711376332E+00
          0                 4           2             4    7     1      -0.1186977978E-01       5    8    1        -0.6381356003E+00      0.1561953050E+01
          0                 5           2             4    7     1      -0.8931748635E-02       4    7    1        -0.4793433266E+00      0.1174023410E+01
          0                 6           2             4    7     1       0.6084791339E-03       5    8    1         0.3356910061E-01      0.8222772008E-01
          0                 7           1             4    7     1      -0.2422918109E-04       5    8    1        -0.1374224671E-02      0.3366096615E-02

    ------------------------------------------------
       NWT REQUIRED            7 OUTER ITERATIONS 
       AND A TOTAL OF         13 INNER ITERATIONS.
    ------------------------------------------------

 NO OUTPUT CONTROL FOR STRESS PERIOD   32   TIME STEP   17
 
 SOLVING FOR HEAD 
                                                   Max.-Head-Change                         Max.-Flux-Residual
  Residual-Control   Outer-Iter.   Inner-Iter.     Column Row Layer    Maximum-Head-Change  Column Row Layer    Maximum-Flux-Residual          L2-NORM 
          0                 1           2             5    8     1       0.8742179878E-01       5    8    1         0.4774405610E+01      0.1092437516E+02
          0                 2           2             5    7     1      -0.1829155590E+00       5    8    1        -0.1004318805E+02      0.2436700046E+02
          0                 3           2             4    7     1      -0.2201686197E-02       4    7    1        -0.1184717825E+00      0.2694768624E+00
          0                 4           2             4    7     1      -0.1187062534E-01       5    8    1        -0.6381925117E+00      0.1562080240E+01
          0                 5           2             4    7     1      -0.8931723747E-02       4    7    1        -0.4793403281E+00      0.1174014525E+01
          0                 6           2             4    7     1       0.6084774383E-03       5    8    1         0.3356882293E-01      0.8222709835E-01
          0                 7           1             4    7     1      -0.2422911328E-04       5    8    1        -0.1374213345E-02      0.3366071251E-02

    ------------------------------------------------
       NWT REQUIRED            7 OUTER ITERATIONS 
       AND A TOTAL OF         13 INNER ITERATIONS.
    ------------------------------------------------

 NO OUTPUT CONTROL FOR STRESS PERIOD   32   TIME STEP   18
 
 SOLVING FOR HEAD 
                                                   Max.-Head-Change                         Max.-Flux-Residual
  Residual-Control   Outer-Iter.   Inner-Iter.     Column Row Layer    Maximum-Head-Change  Column Row Layer    Maximum-Flux-Residual          L2-NORM 
          0                 1           2             5    8     1       0.8947961685E-01       5    8    1         0.4886032254E+01      0.1120797887E+02
          0                 2           2             5    7     1      -0.1831070041E+00       5    8    1        -0.1005435034E+02      0.2439261523E+02
          0                 3           2             4    7     1      -0.2190219273E-02       4    7    1        -0.1178586350E+00      0.2678630224E+00
          0                 4           2             4    7     1      -0.1187147071E-01       5    8    1        -0.6382469874E+00      0.1562203936E+01
          0                 5           2             4    7     1      -0.8931699109E-02       4    7    1        -0.4793373276E+00      0.1174005883E+01
          0                 6           2             4    7     1       0.6084757598E-03       5    8    1         0.3356855705E-01      0.8222649363E-01
          0                 7           1             4    7     1      -0.2422904662E-04       5    8    1        -0.1374202488E-02      0.3366046459E-02

    ------------------------------------------------
       NWT REQUIRED            7 OUTER ITERATIONS 
       AND A TOTAL OF         13 INNER ITERATIONS.
    ------------------------------------------------

 NO OUTPUT CONTROL FOR STRESS PERIOD   32   TIME STEP   19
 
 SOLVING FOR HEAD 
                                                   Max.-Head-Change                         Max.-Flux-Residual
  Residual-Control   Outer-Iter.   Inner-Iter.     Column Row Layer    Maximum-Head-Change  Column Row Layer    Maximum-Flux-Residual          L2-NORM 
          0                 1           2             5    8     1       0.9145228890E-01       5    8    1         0.4992952512E+01      0.1148198927E+02
          0                 2           2             5    7     1      -0.1832942207E+00       5    8    1        -0.1006504198E+02      0.2441752916E+02
          0                 3           2             4    7     1      -0.2178774001E-02       4    7    1        -0.1172459627E+00      0.2662940272E+00
          0                 4           2             4    7     1      -0.1187231479E-01       5    8    1        -0.6382991716E+00      0.1562324272E+01
          0                 5           2             4    7     1      -0.8931674748E-02       4    7    1        -0.4793343293E+00      0.1173997476E+01
          0                 6           2             4    7     1       0.6084741000E-03       4    7    1         0.3356831224E-01      0.8222590518E-01
          0                 7           1             4    7     1      -0.2422898031E-04       5    8    1        -0.1374192069E-02      0.3366022441E-02

    ------------------------------------------------
       NWT REQUIRED            7 OUTER ITERATIONS 
       AND A TOTAL OF         13 INNER ITERATIONS.
    ------------------------------------------------

 NO OUTPUT CONTROL FOR STRESS PERIOD   32   TIME STEP   20
 
 SOLVING FOR HEAD 
                                                   Max.-Head-Change                         Max.-Flux-Residual
  Residual-Control   Outer-Iter.   Inner-Iter.     Column Row Layer    Maximum-Head-Change  Column Row Layer    Maximum-Flux-Residual          L2-NORM 
          0                 1           2             5    8     1       0.9334502016E-01       5    8    1         0.5095457565E+01      0.1174689169E+02
          0                 2           2             5    7     1      -0.1834772723E+00       5    8    1        -0.1007529212E+02      0.2444177095E+02
          0                 3           2             4    7     1      -0.2167360259E-02       4    7    1        -0.1166343432E+00      0.2647677586E+00
          0                 4           2             4    7     1      -0.1187315686E-01       5    8    1        -0.6383492062E+00      0.1562441388E+01
          0                 5           2             4    7     1      -0.8931650683E-02       4    7    1        -0.4793313360E+00      0.1173989293E+01
          0                 6           2             4    7     1       0.6084724608E-03       4    7    1         0.3356810278E-01      0.8222533235E-01
          0                 7           1             4    7     1      -0.2422891537E-04       5    8    1        -0.1374182090E-02      0.3365998963E-02

    ------------------------------------------------
       NWT REQUIRED            7 OUTER ITERATIONS 
       AND A TOTAL OF         13 INNER ITERATIONS.
    ------------------------------------------------

 NO OUTPUT CONTROL FOR STRESS PERIOD   32   TIME STEP   21
 
 SOLVING FOR HEAD 
                                                   Max.-Head-Change                         Max.-Flux-Residual
  Residual-Control   Outer-Iter.   Inner-Iter.     Column Row Layer    Maximum-Head-Change  Column Row Layer    Maximum-Flux-Residual          L2-NORM 
          0                 1           2             5    8     1       0.9516236671E-01       5    8    1         0.5193801717E+01      0.1200311852E+02
          0                 2           2             5    7     1      -0.1836562396E+00       5    8    1        -0.1008512617E+02      0.2446536477E+02
          0                 3           2             4    7     1      -0.2155990655E-02       4    7    1        -0.1160245064E+00      0.2632824630E+00
          0                 4           2             4    7     1      -0.1187399597E-01       5    8    1        -0.6383972150E+00      0.1562555401E+01
          0                 5           2             4    7     1      -0.8931626938E-02       4    7    1        -0.4793283513E+00      0.1173981327E+01
          0                 6           2             4    7     1       0.6084708428E-03       4    7    1         0.3356789390E-01      0.8222477475E-01
          0                 7           1             4    7     1      -0.2422885044E-04       5    8    1        -0.1374172507E-02      0.3365978055E-02

    ------------------------------------------------
       NWT REQUIRED            7 OUTER ITERATIONS 
       AND A TOTAL OF         13 INNER ITERATIONS.
    ------------------------------------------------

 NO OUTPUT CONTROL FOR STRESS PERIOD   32   TIME STEP   22
 
 SOLVING FOR HEAD 
                                                   Max.-Head-Change                         Max.-Flux-Residual
  Residual-Control   Outer-Iter.   Inner-Iter.     Column Row Layer    Maximum-Head-Change  Column Row Layer    Maximum-Flux-Residual          L2-NORM 
          0                 1           2             5    8     1       0.9690870619E-01       5    8    1         0.5288229007E+01      0.1225109780E+02
          0                 2           2             5    7     1      -0.1838312490E+00       5    8    1        -0.1009456855E+02      0.2448833639E+02
          0                 3           2             4    7     1      -0.2144674018E-02       4    7    1        -0.1154169723E+00      0.2618363014E+00
          0                 4           2             4    7     1      -0.1187483148E-01       5    8    1        -0.6384433165E+00      0.1562666434E+01
          0                 5           2             4    7     1      -0.8931603527E-02       4    7    1        -0.4793253777E+00      0.1173973568E+01
          0                 6           2             4    7     1       0.6084692477E-03       4    7    1         0.3356768579E-01      0.8222423133E-01
          0                 7           1             4    7     1      -0.2422878700E-04       5    8    1        -0.1374163297E-02      0.3365954253E-02

    ------------------------------------------------
       NWT REQUIRED            7 OUTER ITERATIONS 
       AND A TOTAL OF         13 INNER ITERATIONS.
    ------------------------------------------------

 NO OUTPUT CONTROL FOR STRESS PERIOD   32   TIME STEP   23
 
 SOLVING FOR HEAD 
                                                   Max.-Head-Change                         Max.-Flux-Residual
  Residual-Control   Outer-Iter.   Inner-Iter.     Column Row Layer    Maximum-Head-Change  Column Row Layer    Maximum-Flux-Residual          L2-NORM 
          0                 1           2             5    8     1       0.9858810223E-01       5    8    1         0.5378966421E+01      0.1249122734E+02
          0                 2           2             5    7     1      -0.1840023537E+00       5    8    1        -0.1010364194E+02      0.2451071003E+02
          0                 3           2             4    7     1      -0.2133419268E-02       4    7    1        -0.1148122623E+00      0.2604278021E+00
          0                 4           2             4    7     1      -0.1187566272E-01       5    8    1        -0.6384876211E+00      0.1562774603E+01
          0                 5           2             4    7     1      -0.8931580467E-02       4    7    1        -0.4793224179E+00      0.1173966009E+01
          0                 6           2             4    7     1       0.6084676768E-03       4    7    1         0.3356747864E-01      0.8222370149E-01
          0                 7           1             4    7     1      -0.2422872460E-04       5    8    1        -0.1374154352E-02      0.3365932236E-02

    ------------------------------------------------
       NWT REQUIRED            7 OUTER ITERATIONS 
       AND A TOTAL OF         13 INNER ITERATIONS.
    ------------------------------------------------

 NO OUTPUT CONTROL FOR STRESS PERIOD   32   TIME STEP   24
 
 SOLVING FOR HEAD 
                                                   Max.-Head-Change                         Max.-Flux-Residual
  Residual-Control   Outer-Iter.   Inner-Iter.     Column Row Layer    Maximum-Head-Change  Column Row Layer    Maximum-Flux-Residual          L2-NORM 
          0                 1           2             5    8     1       0.1002045155E+00       5    8    1         0.5466225802E+01      0.1272385738E+02
          0                 2           2             5    7     1      -0.1841696531E+00       5    8    1        -0.1011236754E+02      0.2453250618E+02
          0                 3           2             4    7     1      -0.2122234524E-02       4    7    1        -0.1142108522E+00      0.2590551166E+00
          0                 4           2             4    7     1      -0.1187648908E-01       5    8    1        -0.6385302347E+00      0.1562880011E+01
          0                 5           2             4    7     1      -0.8931557772E-02       4    7    1        -0.4793194742E+00      0.1173958644E+01
          0                 6           2             4    7     1       0.6084661308E-03       4    7    1         0.3356727262E-01      0.8222318482E-01
          0                 7           1             4    7     1      -0.2422866300E-04       5    8    1        -0.1374145701E-02      0.3365910954E-02

    ------------------------------------------------
       NWT REQUIRED            7 OUTER ITERATIONS 
       AND A TOTAL OF         13 INNER ITERATIONS.
    ------------------------------------------------

 NO OUTPUT CONTROL FOR STRESS PERIOD   32   TIME STEP   25
 
 SOLVING FOR HEAD 
                                                   Max.-Head-Change                         Max.-Flux-Residual
  Residual-Control   Outer-Iter.   Inner-Iter.     Column Row Layer    Maximum-Head-Change  Column Row Layer    Maximum-Flux-Residual          L2-NORM 
          0                 1           2             5    8     1       0.1017618115E+00       5    8    1         0.5550219374E+01      0.1294929655E+02
          0                 2           2             5    7     1      -0.1843332346E+00       5    8    1        -0.1012076658E+02      0.2455374726E+02
          0                 3           2             4    7     1      -0.2111128029E-02       4    7    1        -0.1136132253E+00      0.2577164298E+00
          0                 4           2             4    7     1      -0.1187730997E-01       5    8    1        -0.6385712600E+00      0.1562982767E+01
          0                 5           2             4    7     1      -0.8931535455E-02       4    7    1        -0.4793165488E+00      0.1173951462E+01
          0                 6           2             4    7     1       0.6084646104E-03       4    7    1         0.3356706786E-01      0.8222268171E-01
          0                 7           1             4    7     1      -0.2422860245E-04       5    8    1        -0.1374137483E-02      0.3365890371E-02

    ------------------------------------------------
       NWT REQUIRED            7 OUTER ITERATIONS 
       AND A TOTAL OF         13 INNER ITERATIONS.
    ------------------------------------------------

 NO OUTPUT CONTROL FOR STRESS PERIOD   32   TIME STEP   26
 
 SOLVING FOR HEAD 
                                                   Max.-Head-Change                         Max.-Flux-Residual
  Residual-Control   Outer-Iter.   Inner-Iter.     Column Row Layer    Maximum-Head-Change  Column Row Layer    Maximum-Flux-Residual          L2-NORM 
          0                 1           2             5    8     1       0.1032628984E+00       5    8    1         0.5631122526E+01      0.1316786954E+02
          0                 2           2             5    7     1      -0.1844932110E+00       5    8    1        -0.1012885657E+02      0.2457445463E+02
          0                 3           2             4    7     1      -0.2100105424E-02       4    7    1        -0.1130197200E+00      0.2564108476E+00
          0                 4           2             4    7     1      -0.1187812494E-01       5    8    1        -0.6386107796E+00      0.1563082969E+01
          0                 5           2             4    7     1      -0.8931513526E-02       4    7    1        -0.4793136436E+00      0.1173944458E+01
          0                 6           2             4    7     1       0.6084631167E-03       4    7    1         0.3356686453E-01      0.8222219102E-01
          0                 7           1             4    7     1      -0.2422854315E-04       5    8    1        -0.1374129586E-02      0.3365870287E-02

    ------------------------------------------------
       NWT REQUIRED            7 OUTER ITERATIONS 
       AND A TOTAL OF         13 INNER ITERATIONS.
    ------------------------------------------------

 NO OUTPUT CONTROL FOR STRESS PERIOD   32   TIME STEP   27
 
 SOLVING FOR HEAD 
                                                   Max.-Head-Change                         Max.-Flux-Residual
  Residual-Control   Outer-Iter.   Inner-Iter.     Column Row Layer    Maximum-Head-Change  Column Row Layer    Maximum-Flux-Residual          L2-NORM 
          0                 1           2             5    8     1       0.1047110771E+00       5    8    1         0.5709118839E+01      0.1337997333E+02
          0                 2           2             5    7     1      -0.1846496517E+00       5    8    1        -0.1013665590E+02      0.2459464809E+02
          0                 3           2             4    7     1      -0.2089173555E-02       4    7    1        -0.1124307383E+00      0.2551370277E+00
          0                 4           2             4    7     1      -0.1187893350E-01       5    8    1        -0.6386488833E+00      0.1563180710E+01
          0                 5           2             4    7     1      -0.8931491994E-02       4    7    1        -0.4793107604E+00      0.1173937627E+01
          0                 6           2             4    7     1       0.6084616500E-03       4    7    1         0.3356666273E-01      0.8222171227E-01
          0                 7           1             4    7     1      -0.2422848478E-04       5    8    1        -0.1374121947E-02      0.3365850613E-02

    ------------------------------------------------
       NWT REQUIRED            7 OUTER ITERATIONS 
       AND A TOTAL OF         13 INNER ITERATIONS.
    ------------------------------------------------

 NO OUTPUT CONTROL FOR STRESS PERIOD   32   TIME STEP   28
 
 SOLVING FOR HEAD 
                                                   Max.-Head-Change                         Max.-Flux-Residual
  Residual-Control   Outer-Iter.   Inner-Iter.     Column Row Layer    Maximum-Head-Change  Column Row Layer    Maximum-Flux-Residual          L2-NORM 
          0                 1           2             5    8     1       0.1061090020E+00       5    8    1         0.5784355970E+01      0.1358588583E+02
          0                 2           2             5    7     1      -0.1848026398E+00       5    8    1        -0.1014417931E+02      0.2461434471E+02
          0                 3           2             4    7     1      -0.2078338612E-02       4    7    1        -0.1118466452E+00      0.2538938495E+00
          0                 4           2             4    7     1      -0.1187973518E-01       5    8    1        -0.6386856428E+00      0.1563276074E+01
          0                 5           2             4    7     1      -0.8931470868E-02       4    7    1        -0.4793079010E+00      0.1173930961E+01
          0                 6           2             4    7     1       0.6084602109E-03       4    7    1         0.3356646257E-01      0.8222124509E-01
          0                 7           1             4    7     1      -0.2422842756E-04       5    8    1        -0.1374114591E-02      0.3365831489E-02

    ------------------------------------------------
       NWT REQUIRED            7 OUTER ITERATIONS 
       AND A TOTAL OF         13 INNER ITERATIONS.
    ------------------------------------------------

 NO OUTPUT CONTROL FOR STRESS PERIOD   32   TIME STEP   29
 
 SOLVING FOR HEAD 
                                                   Max.-Head-Change                         Max.-Flux-Residual
  Residual-Control   Outer-Iter.   Inner-Iter.     Column Row Layer    Maximum-Head-Change  Column Row Layer    Maximum-Flux-Residual          L2-NORM 
          0                 1           2             5    8     1       0.1074594370E+00       5    8    1         0.5856987117E+01      0.1378588285E+02
          0                 2           2             5    7     1      -0.1849617020E+00       5    8    1        -0.1015092827E+02      0.2463356065E+02
          0                 3           2             4    7     1      -0.2067596403E-02       4    7    1        -0.1112676661E+00      0.2526788713E+00
          0                 4           2             4    7     1      -0.1188053206E-01       5    8    1        -0.6387186151E+00      0.1563369147E+01
          0                 5           2             4    7     1      -0.8931451454E-02       4    7    1        -0.4793050666E+00      0.1173924454E+01
          0                 6           2             4    7     1       0.6084588877E-03       4    7    1         0.3356626416E-01      0.8222078902E-01
          0                 7           1             4    7     1      -0.2422837449E-04       5    8    1        -0.1374107978E-02      0.3365812751E-02

    ------------------------------------------------
       NWT REQUIRED            7 OUTER ITERATIONS 
       AND A TOTAL OF         13 INNER ITERATIONS.
    ------------------------------------------------

 NO OUTPUT CONTROL FOR STRESS PERIOD   32   TIME STEP   30



 STREAM LISTING     PERIOD     32   STEP       30

 LAYER ROW COL. STREAM  RCH.  FLOW INTO     FLOW TO   FLOW OUT OF   OVRLND.     DIRECT     STREAM       STREAM     STREAM     STREAM   STREAMBED  STREAMBED
                SEG.NO.  NO.  STRM. RCH.    AQUIFER    STRM. RCH.    RUNOFF     PRECIP       ET          HEAD       DEPTH      WIDTH   CONDCTNC.   GRADIENT

   1    1    1     1     1    1.9000E+01  2.1427E-01   1.8786E+01  0.000E+00  0.000E+00  0.000E+00  1.09413E+03  1.082E+00  1.166E+01  5.249E-02  1.361E+00
   1    2    2     1     2    1.8786E+01  3.3054E-01   1.8455E+01  0.000E+00  0.000E+00  0.000E+00  1.08914E+03  1.077E+00  1.158E+01  8.107E-02  1.359E+00
   1    3    3     1     3    1.8455E+01  2.8064E-01   1.8175E+01  0.000E+00  0.000E+00  0.000E+00  1.08349E+03  1.072E+00  1.149E+01  6.892E-02  1.357E+00
   1    3    4     1     4    1.8175E+01  2.5740E-01   1.7917E+01  0.000E+00  0.000E+00  0.000E+00  1.07848E+03  1.068E+00  1.140E+01  6.328E-02  1.356E+00
   1    4    5     2     1    1.5917E+01  3.0542E-01   1.5612E+01  0.000E+00  0.000E+00  0.000E+00  1.07285E+03  9.157E-01  1.200E+01  7.800E-02  1.305E+00
   1    5    6     2     2    1.5612E+01  2.3438E-01   1.5377E+01  0.000E+00  0.000E+00  0.000E+00  1.06742E+03  9.063E-01  1.200E+01  6.000E-02  1.302E+00
   1    6    6     2     3    1.5377E+01  2.3388E-01   1.5143E+01  0.000E+00  0.000E+00  0.000E+00  1.06269E+03  8.980E-01  1.200E+01  6.000E-02  1.299E+00
   1    7    6     2     4    1.5143E+01  2.3338E-01   1.4910E+01  0.000E+00  0.000E+00  0.000E+00  1.05797E+03  8.897E-01  1.200E+01  6.000E-02  1.297E+00
   1    8    6     2     5    1.4910E+01  2.3289E-01   1.4677E+01  0.000E+00  0.000E+00  0.000E+00  1.05324E+03  8.814E-01  1.200E+01  6.000E-02  1.294E+00
   1    3    5     3     1    2.0000E+00  2.8252E-01   1.7175E+00  0.000E+00  0.000E+00  0.000E+00  1.07555E+03  1.909E+00  9.636E+00  7.227E-02  1.955E+00
   1    3    6     3     2    1.7175E+00  2.4905E-01   1.4684E+00  0.000E+00  0.000E+00  0.000E+00  1.07264E+03  1.727E+00  8.909E+00  6.682E-02  1.864E+00
   1    3    7     3     3    1.4684E+00  1.9718E-01   1.2712E+00  0.000E+00  0.000E+00  0.000E+00  1.06987E+03  1.555E+00  8.218E+00  5.547E-02  1.777E+00
   1    4    8     3     4    1.2712E+00  2.2567E-01   1.0456E+00  0.000E+00  0.000E+00  0.000E+00  1.06682E+03  1.364E+00  7.455E+00  6.709E-02  1.682E+00
   1    5    8     3     5    1.0456E+00  1.5790E-01   8.8768E-01  0.000E+00  0.000E+00  0.000E+00  1.06362E+03  1.164E+00  6.655E+00  4.991E-02  1.582E+00
   1    6    8     3     6    8.8768E-01  5.5980E-02   8.3170E-01  0.000E+00  0.000E+00  0.000E+00  1.06158E+03  1.036E+00  6.145E+00  1.844E-02  1.518E+00
   1    5   10     4     1    1.0000E+01  9.0919E-02   9.9091E+00  0.000E+00  0.000E+00  0.000E+00  1.07836E+03  6.368E-01  1.000E+01  2.500E-02  1.212E+00
   1    5    9     4     2    9.9091E+00  1.8158E-01   9.7275E+00  0.000E+00  0.000E+00  0.000E+00  1.07154E+03  6.315E-01  1.000E+01  5.000E-02  1.211E+00
   1    6    8     4     3    9.7275E+00  1.2689E-01   9.6006E+00  0.000E+00  0.000E+00  0.000E+00  1.06381E+03  6.256E-01  1.000E+01  3.500E-02  1.209E+00
   1    6    8     5     1    1.0432E+01  2.2686E-01   1.0205E+01  0.000E+00  0.000E+00  0.000E+00  1.05868E+03  6.790E-01  1.542E+01  6.166E-02  1.226E+00
   1    7    7     5     2    1.0205E+01  2.7894E-01   9.9265E+00  0.000E+00  0.000E+00  0.000E+00  1.05417E+03  6.732E-01  1.519E+01  7.594E-02  1.224E+00
   1    8    7     5     3    9.9265E+00  1.9221E-01   9.7343E+00  0.000E+00  0.000E+00  0.000E+00  1.04992E+03  6.676E-01  1.497E+01  5.241E-02  1.223E+00
   1    8    6     5     4    9.7343E+00  1.3577E-01   9.5985E+00  0.000E+00  0.000E+00  0.000E+00  1.04691E+03  6.637E-01  1.482E+01  3.706E-02  1.221E+00
   1    9    6     6     1    2.4276E+01  2.5176E-01   2.4024E+01  0.000E+00  0.000E+00  0.000E+00  1.04392E+03  1.196E+00  1.200E+01  6.000E-02  1.399E+00
   1   10    7     6     2    2.4024E+01  2.5131E-01   2.3773E+01  0.000E+00  0.000E+00  0.000E+00  1.03937E+03  1.188E+00  1.200E+01  6.000E-02  1.396E+00
   1   11    7     6     3    2.3773E+01  2.5086E-01   2.3522E+01  0.000E+00  0.000E+00  0.000E+00  1.03482E+03  1.181E+00  1.200E+01  6.000E-02  1.394E+00
   1   12    7     6     4    2.3522E+01  2.5041E-01   2.3271E+01  0.000E+00  0.000E+00  0.000E+00  1.03026E+03  1.173E+00  1.200E+01  6.000E-02  1.391E+00
   1   13    7     6     5    2.3271E+01  6.5780E-03   2.3265E+01  0.000E+00  0.000E+00  0.000E+00  1.02708E+03  1.170E+00  1.200E+01  2.400E-02  9.136E-02
   1   14    9     7     1    1.5000E+02  1.3496E+00   1.4865E+02  0.000E+00  0.000E+00  0.000E+00  1.03987E+03  2.288E+00  5.529E+01  5.593E-01  8.043E-01
   1   13    8     7     2    1.4865E+02  1.9084E+00   1.4674E+02  0.000E+00  0.000E+00  0.000E+00  1.03478E+03  2.279E+00  5.526E+01  6.148E-01  1.035E+00
   1   13    7     7     3    1.4674E+02  1.6107E+00   1.4513E+02  0.000E+00  0.000E+00  0.000E+00  1.02969E+03  2.270E+00  5.521E+01  5.584E-01  9.615E-01
   1   13    6     8     1    1.6840E+02  1.0509E+00   1.6735E+02  0.000E+00  0.000E+00  0.000E+00  1.02481E+03  2.938E+00  4.261E+01  4.342E-01  8.068E-01
   1   13    5     8     2    1.6735E+02  2.9553E-01   1.6705E+02  0.000E+00  0.000E+00  0.000E+00  1.01856E+03  2.934E+00  4.254E+01  4.335E-01  2.272E-01
   1   13    4     8     3    1.6705E+02 -2.0375E+00   1.6909E+02  0.000E+00  0.000E+00  0.000E+00  1.01231E+03  2.940E+00  4.262E+01  4.344E+00 -1.564E-01
   1   13    3     8     4    1.6909E+02 -3.4517E+00   1.7254E+02  0.000E+00  0.000E+00  0.000E+00  1.00608E+03  2.957E+00  4.288E+01  4.370E+00 -2.633E-01
   1   13    2     8     5    1.7254E+02 -2.5292E+00   1.7507E+02  0.000E+00  0.000E+00  0.000E+00  9.99852E+02  2.977E+00  4.316E+01  4.399E+00 -1.917E-01
   1   13    1     8     6    1.7507E+02 -1.9707E+00   1.7704E+02  0.000E+00  0.000E+00  0.000E+00  9.94866E+02  2.991E+00  4.337E+01  2.652E+00 -2.477E-01





UNSATURATED ZONE PACKAGE VOLUMETRIC BUDGET FOR  TIME STEP    30 STRESS PERIOD   32
  ------------------------------------------------------------------------------



     CUMULATIVE VOLUMES      L**3       RATES FOR THIS TIME STEP      L**3/T
     ------------------                 ------------------------

           IN:                                      IN:
           ---                                      ---
        INFILTRATION =  1216669768.7620          INFILTRATION =          72.6628

          OUT:                                     OUT:
          ----                                     ----
              UZF ET =  1102801053.2977                UZF ET =          58.2420
        UZF RECHARGE =    75864354.0216          UZF RECHARGE =       0.0000E+00

            IN - OUT =    38004361.4427              IN - OUT =          14.4207

          STORAGE:                                 STORAGE:
          --------                                 --------
      STORAGE CHANGE =    38004363.3856        STORAGE CHANGE =          14.4207

 PERCENT DISCREPANCY IS DIFFERENCE BETWEEN IN-OUT MINUS CHANGE IN STORAGE
 DIVIDED BY THE AVERAGE OF IN AND OUT TIMES 100

 PERCENT DISCREPANCY =           0.00     PERCENT DISCREPANCY =           0.00






1
  VOLUMETRIC BUDGET FOR AGRICULTURAL FIELDS AT  END OF TIME STEP   30, STRESS PERIOD  32
  ------------------------------------------------------------------------------

     CUMULATIVE VOLUMES      L**3       RATES FOR THIS TIME STEP      L**3/T
     ------------------                 ------------------------

           IN:                                      IN:
           ---                                      ---
               AG WELLS  =  1147498368.0000                 AG WELLS  =          71.8153
      DIVERSION SEGMENTS =           0.0000        DIVERSION SEGMENTS =           0.0000
       IRRIGATION PONDS  =           0.0000         IRRIGATION PONDS  =           0.0000
           GW IRRIGATION =           0.0000             GW IRRIGATION =           0.0000
           SW IRRIGATION =           0.0000             SW IRRIGATION =           0.0000
        SYSTEM LOSSES GW =           0.0000          SYSTEM LOSSES GW =           0.0000
        SYSTEM LOSSES SW =           0.0000          SYSTEM LOSSES SW =           0.0000

                TOTAL IN =  1147498368.0000                  TOTAL IN =          71.8153

          OUT:                                     OUT:
          ----                                     ----
               AG WELLS  =           0.0000                 AG WELLS  =           0.0000
      DIVERSION SEGMENTS =           0.0000        DIVERSION SEGMENTS =           0.0000
       IRRIGATION PONDS  =           0.0000         IRRIGATION PONDS  =           0.0000
           GW IRRIGATION =  1147498368.0000             GW IRRIGATION =          71.8153
           SW IRRIGATION =           0.0000             SW IRRIGATION =           0.0000
        SYSTEM LOSSES GW =           0.0000          SYSTEM LOSSES GW =           0.0000
        SYSTEM LOSSES SW =           0.0000          SYSTEM LOSSES SW =           0.0000

               TOTAL OUT =  1147498368.0000                 TOTAL OUT =          71.8153

                IN - OUT =           0.0000                  IN - OUT =           0.0000

     PERCENT DISCREPANCY =           0.00         PERCENT DISCREPANCY =           0.00



1
  VOLUMETRIC BUDGET FOR ENTIRE MODEL AT END OF TIME STEP   30, STRESS PERIOD  32
  ------------------------------------------------------------------------------

     CUMULATIVE VOLUMES      L**3       RATES FOR THIS TIME STEP      L**3/T
     ------------------                 ------------------------

           IN:                                      IN:
           ---                                      ---
             STORAGE     =  1455991808.0000               STORAGE     =          69.9272
       CONSTANT HEAD     =           0.0000         CONSTANT HEAD     =           0.0000
     HEAD DEP BOUNDS     =    23314110.0000       HEAD DEP BOUNDS     =           0.2867
      STREAM LEAKAGE     =  1002717056.0000        STREAM LEAKAGE     =          11.9503
        UZF RECHARGE     =    75864392.0000          UZF RECHARGE     =           0.0000
               GW ET     =           0.0000                 GW ET     =           0.0000
     SURFACE LEAKAGE     =           0.0000       SURFACE LEAKAGE     =           0.0000
           AG WELLS      =           0.0000             AG WELLS      =           0.0000

                TOTAL IN =  2557887232.0000                  TOTAL IN =          82.1642

          OUT:                                     OUT:
          ----                                     ----
             STORAGE     =   527424672.0000               STORAGE     =       7.0499E-02
       CONSTANT HEAD     =           0.0000         CONSTANT HEAD     =           0.0000
     HEAD DEP BOUNDS     =    23911598.0000       HEAD DEP BOUNDS     =           0.2892
      STREAM LEAKAGE     =   841448512.0000        STREAM LEAKAGE     =           9.9892
        UZF RECHARGE     =           0.0000          UZF RECHARGE     =           0.0000
               GW ET     =    17607784.0000                 GW ET     =           0.0000
     SURFACE LEAKAGE     =           0.0000       SURFACE LEAKAGE     =           0.0000
           AG WELLS      =  1147498368.0000             AG WELLS      =          71.8153

               TOTAL OUT =  2557891072.0000                 TOTAL OUT =          82.1641

                IN - OUT =       -3840.0000                  IN - OUT =       9.9182E-05

     PERCENT DISCREPANCY =          -0.00         PERCENT DISCREPANCY =           0.00






         TIME SUMMARY AT END OF TIME STEP   30 IN STRESS PERIOD   32
                    SECONDS     MINUTES      HOURS       DAYS        YEARS
                    -----------------------------------------------------------
   TIME STEP LENGTH  87667.      1461.1      24.352      1.0147     2.77799E-03
 STRESS PERIOD TIME 2.63000E+06  43833.      730.56      30.440     8.33397E-02
         TOTAL TIME 8.16164E+07 1.36027E+06  22671.      944.63      2.5863    
1
1
                            STRESS PERIOD NO.   33, LENGTH =   2630000.    
                            -----------------------------------------------

                              NUMBER OF TIME STEPS =    30

                               MULTIPLIER FOR DELT =     1.000

                            INITIAL TIME STEP SIZE =   87666.66    

 REUSING NON-PARAMETER GHB CELLS FROM LAST STRESS PERIOD

      2 GHB CELLS

 REUSING STREAM SEGMENT DATA FROM LAST STRESS PERIOD



            AREAL INFILTRATION RATE
 READING ON UNIT   19 WITH FORMAT: (FREE)              

            1           2           3           4           5           6           7           8           9          10
 ........................................................................................................................
   1   1.0000E-10  2.0000E-10   0.000       0.000       0.000       0.000       0.000       0.000       0.000       0.000    
   2   2.0000E-10  1.0000E-10  2.0000E-10   0.000       0.000      8.0000E-10  8.0000E-10  5.0000E-10   0.000       0.000    
   3    0.000      5.0000E-10  1.0000E-10  1.0000E-10  8.0000E-10  8.0000E-10  5.0000E-10  5.0000E-10   0.000       0.000    
   4   8.0000E-10  5.0000E-10  1.0000E-10  1.0000E-10  1.0000E-10  1.0000E-10  1.0000E-10  1.0000E-10  2.0000E-10   0.000    
   5   8.0000E-10  5.0000E-10  1.0000E-10  1.0000E-10  1.0000E-10  1.0000E-10  1.0000E-10  1.0000E-10  1.0000E-10  1.0000E-10
   6   8.0000E-10  5.0000E-10  5.0000E-10  2.0000E-10  2.0000E-10  1.0000E-10  1.0000E-10  1.0000E-10  1.0000E-10  5.0000E-10
   7   8.0000E-10  5.0000E-10  5.0000E-10  2.0000E-10  2.0000E-10  1.0000E-10  1.0000E-10  2.0000E-10  2.0000E-10   0.000    
   8    0.000      5.0000E-10  5.0000E-10  2.0000E-10  2.0000E-10  1.0000E-10  1.0000E-10  2.0000E-10  5.0000E-10   0.000    
   9    0.000      5.0000E-10  5.0000E-10  2.0000E-10  2.0000E-10  1.0000E-10  1.0000E-10  2.0000E-10  5.0000E-10   0.000    
  10    0.000      5.0000E-10  5.0000E-10  2.0000E-10  2.0000E-10  1.0000E-10  1.0000E-10  2.0000E-10  5.0000E-10  8.0000E-10
  11    0.000      1.0000E-10  1.0000E-10  1.0000E-10  1.0000E-10  1.0000E-10  1.0000E-10  2.0000E-10  5.0000E-10   0.000    
  12   1.0000E-10  1.0000E-10  1.0000E-10  1.0000E-10  1.0000E-10  1.0000E-10  1.0000E-10  1.0000E-10  2.0000E-10   0.000    
  13   1.0000E-10  1.0000E-10  2.0000E-10  2.0000E-10  2.0000E-10  2.0000E-10  2.0000E-10  1.0000E-10  1.0000E-10   0.000    
  14    0.000      2.0000E-10  5.0000E-10  5.0000E-10  5.0000E-10  5.0000E-10  5.0000E-10  2.0000E-10  1.0000E-10   0.000    
  15    0.000       0.000      8.0000E-10  8.0000E-10  8.0000E-10  8.0000E-10   0.000       0.000       0.000       0.000    

                  ET RATE =  3.250000E-07

 USING ET EXTINCTION DEPTH FROM PREVIOUS STRESS PERIOD. CURRENT PERIOD IS:      33

 USING EXTINCTION WATER CONTENT FROM PREVIOUS STRESS PERIOD. CURRENT PERIOD IS:      33

 USING AIR ENTRY PRESSURE FROM PREVIOUS STRESS PERIOD. CURRENT PERIOD IS:      33

 USING ROOT PRESSURE HEAD FROM PREVIOUS STRESS PERIOD. CURRENT PERIOD IS:      33

 USING ROOT ACTIVITY FROM PREVIOUS STRESS PERIOD. CURRENT PERIOD IS:      33

 PROCESSING AG STRESS PERIOD DATA

 READING AG STRESS PERIOD DATA

 READING IRRIGATION WELL

 NO IRRPOND OR REUSING IRRPOND DATA FROM LAST STRESS PERIOD

 END PROCESSING AG STRESS PERIOD DATA OPTIONS
 
 SOLVING FOR HEAD 
                                                   Max.-Head-Change                         Max.-Flux-Residual
  Residual-Control   Outer-Iter.   Inner-Iter.     Column Row Layer    Maximum-Head-Change  Column Row Layer    Maximum-Flux-Residual          L2-NORM 
          0                 1           2             4    7     1      -0.7916651248E-01       4    7    1        -0.4176312200E+01      0.9702533712E+01
          0                 2           2             4    7     1       0.7700571900E-02       4    7    1         0.4176195536E+00      0.9702459100E+00
          0                 3           2             4    7     1      -0.5243820701E-03       4    7    1        -0.2923349175E-01      0.6791730857E-01
          0                 4           1             4    7     1       0.2086564547E-04       4    7    1         0.1195650951E-02      0.2777821116E-02

    ------------------------------------------------
       NWT REQUIRED            4 OUTER ITERATIONS 
       AND A TOTAL OF          7 INNER ITERATIONS.
    ------------------------------------------------

 NO OUTPUT CONTROL FOR STRESS PERIOD   33   TIME STEP    1
 
 SOLVING FOR HEAD 
                                                   Max.-Head-Change                         Max.-Flux-Residual
  Residual-Control   Outer-Iter.   Inner-Iter.     Column Row Layer    Maximum-Head-Change  Column Row Layer    Maximum-Flux-Residual          L2-NORM 
          0                 1           2             5    8     1       0.1160050611E+00       5    8    1         0.6311176446E+01      0.1486407676E+02
          0                 2           2             5    7     1      -0.1592626524E+00       5    8    1        -0.8751090409E+01      0.2121794943E+02
          0                 3           2             5    7     1       0.1084508928E-01       5    8    1         0.6125705934E+00      0.1485241534E+01
          0                 4           2             5    7     1      -0.4315367572E-03       5    8    1        -0.2505419999E-01      0.6074653561E-01
          0                 5           1             5    7     1       0.5321041643E-05       5    8    1         0.3175138886E-03      0.7698469780E-03

    ------------------------------------------------
       NWT REQUIRED            5 OUTER ITERATIONS 
       AND A TOTAL OF          9 INNER ITERATIONS.
    ------------------------------------------------

 NO OUTPUT CONTROL FOR STRESS PERIOD   33   TIME STEP    2
 
 SOLVING FOR HEAD 
                                                   Max.-Head-Change                         Max.-Flux-Residual
  Residual-Control   Outer-Iter.   Inner-Iter.     Column Row Layer    Maximum-Head-Change  Column Row Layer    Maximum-Flux-Residual          L2-NORM 
          0                 1           2             5    8     1       0.1152826997E+00       5    8    1         0.6269634412E+01      0.1483271023E+02
          0                 2           2             5    7     1      -0.1592986507E+00       5    8    1        -0.8746936260E+01      0.2121845303E+02
          0                 3           2             5    7     1       0.1084724880E-01       5    8    1         0.6122636168E+00      0.1485237039E+01
          0                 4           2             5    7     1      -0.4316226908E-03       5    8    1        -0.2504164451E-01      0.6074635206E-01
          0                 5           1             5    7     1       0.5322101191E-05       5    8    1         0.3173547771E-03      0.7698454555E-03

    ------------------------------------------------
       NWT REQUIRED            5 OUTER ITERATIONS 
       AND A TOTAL OF          9 INNER ITERATIONS.
    ------------------------------------------------

 NO OUTPUT CONTROL FOR STRESS PERIOD   33   TIME STEP    3
 
 SOLVING FOR HEAD 
                                                   Max.-Head-Change                         Max.-Flux-Residual
  Residual-Control   Outer-Iter.   Inner-Iter.     Column Row Layer    Maximum-Head-Change  Column Row Layer    Maximum-Flux-Residual          L2-NORM 
          0                 1           2             5    8     1       0.1146309579E+00       5    8    1         0.6232085914E+01      0.1480610246E+02
          0                 2           2             5    7     1      -0.1593331614E+00       5    8    1        -0.8743181461E+01      0.2121915459E+02
          0                 3           2             5    7     1       0.1084959798E-01       5    8    1         0.6120008049E+00      0.1485286089E+01
          0                 4           2             5    7     1      -0.4317161713E-03       5    8    1        -0.2503089539E-01      0.6074835841E-01
          0                 5           1             5    7     1       0.5323253376E-05       5    8    1         0.3172185570E-03      0.7698688547E-03

    ------------------------------------------------
       NWT REQUIRED            5 OUTER ITERATIONS 
       AND A TOTAL OF          9 INNER ITERATIONS.
    ------------------------------------------------

 NO OUTPUT CONTROL FOR STRESS PERIOD   33   TIME STEP    4
 
 SOLVING FOR HEAD 
                                                   Max.-Head-Change                         Max.-Flux-Residual
  Residual-Control   Outer-Iter.   Inner-Iter.     Column Row Layer    Maximum-Head-Change  Column Row Layer    Maximum-Flux-Residual          L2-NORM 
          0                 1           2             5    8     1       0.1140440752E+00       5    8    1         0.6198205446E+01      0.1478388899E+02
          0                 2           2             5    7     1      -0.1593667013E+00       5    8    1        -0.8739793462E+01      0.2122005345E+02
          0                 3           2             5    7     1       0.1085188120E-01       5    8    1         0.6117636602E+00      0.1485348955E+01
          0                 4           2             5    7     1      -0.4318070258E-03       5    8    1        -0.2502119608E-01      0.6075092987E-01
          0                 5           1             5    7     1       0.5324372852E-05       5    8    1         0.3170956152E-03      0.7699071151E-03

    ------------------------------------------------
       NWT REQUIRED            5 OUTER ITERATIONS 
       AND A TOTAL OF          9 INNER ITERATIONS.
    ------------------------------------------------

 NO OUTPUT CONTROL FOR STRESS PERIOD   33   TIME STEP    5
 
 SOLVING FOR HEAD 
                                                   Max.-Head-Change                         Max.-Flux-Residual
  Residual-Control   Outer-Iter.   Inner-Iter.     Column Row Layer    Maximum-Head-Change  Column Row Layer    Maximum-Flux-Residual          L2-NORM 
          0                 1           2             5    8     1       0.1135179788E+00       5    8    1         0.6167720732E+01      0.1476579835E+02
          0                 2           2             5    7     1      -0.1593983794E+00       5    8    1        -0.8736745026E+01      0.2122114474E+02
          0                 3           2             5    7     1       0.1085403752E-01       5    8    1         0.6115502969E+00      0.1485425294E+01
          0                 4           2             5    7     1      -0.4318928317E-03       5    8    1        -0.2501246937E-01      0.6075405237E-01
          0                 5           1             5    7     1       0.5325431281E-05       5    8    1         0.3169850352E-03      0.7699417067E-03

    ------------------------------------------------
       NWT REQUIRED            5 OUTER ITERATIONS 
       AND A TOTAL OF          9 INNER ITERATIONS.
    ------------------------------------------------

 NO OUTPUT CONTROL FOR STRESS PERIOD   33   TIME STEP    6
 
 SOLVING FOR HEAD 
                                                   Max.-Head-Change                         Max.-Flux-Residual
  Residual-Control   Outer-Iter.   Inner-Iter.     Column Row Layer    Maximum-Head-Change  Column Row Layer    Maximum-Flux-Residual          L2-NORM 
          0                 1           2             5    8     1       0.1130466177E+00       5    8    1         0.6140347747E+01      0.1475139102E+02
          0                 2           2             5    7     1      -0.1594293255E+00       5    8    1        -0.8734007765E+01      0.2122239315E+02
          0                 3           2             5    7     1       0.1085614412E-01       5    8    1         0.6113587076E+00      0.1485512634E+01
          0                 4           2             5    7     1      -0.4319766590E-03       5    8    1        -0.2500463328E-01      0.6075762500E-01
          0                 5           1             5    7     1       0.5326464729E-05       5    8    1         0.3168857302E-03      0.7699959528E-03

    ------------------------------------------------
       NWT REQUIRED            5 OUTER ITERATIONS 
       AND A TOTAL OF          9 INNER ITERATIONS.
    ------------------------------------------------

 NO OUTPUT CONTROL FOR STRESS PERIOD   33   TIME STEP    7
 
 SOLVING FOR HEAD 
                                                   Max.-Head-Change                         Max.-Flux-Residual
  Residual-Control   Outer-Iter.   Inner-Iter.     Column Row Layer    Maximum-Head-Change  Column Row Layer    Maximum-Flux-Residual          L2-NORM 
          0                 1           2             5    8     1       0.1126261343E+00       5    8    1         0.6115850897E+01      0.1474032806E+02
          0                 2           2             5    7     1      -0.1594593628E+00       5    8    1        -0.8731558117E+01      0.2122379249E+02
          0                 3           2             5    7     1       0.1085818889E-01       5    8    1         0.6111872493E+00      0.1485610541E+01
          0                 4           2             5    7     1      -0.4320580251E-03       5    8    1        -0.2499762054E-01      0.6076162941E-01
          0                 5           1             5    7     1       0.5327467822E-05       5    8    1         0.3167968598E-03      0.7700379655E-03

    ------------------------------------------------
       NWT REQUIRED            5 OUTER ITERATIONS 
       AND A TOTAL OF          9 INNER ITERATIONS.
    ------------------------------------------------

 NO OUTPUT CONTROL FOR STRESS PERIOD   33   TIME STEP    8
 
 SOLVING FOR HEAD 
                                                   Max.-Head-Change                         Max.-Flux-Residual
  Residual-Control   Outer-Iter.   Inner-Iter.     Column Row Layer    Maximum-Head-Change  Column Row Layer    Maximum-Flux-Residual          L2-NORM 
          0                 1           2             5    8     1       0.1122521754E+00       5    8    1         0.6093984135E+01      0.1473230815E+02
          0                 2           2             4    7     1      -0.1595319746E+00       5    8    1        -0.8729371476E+01      0.2122532793E+02
          0                 3           2             4    7     1       0.1086312880E-01       5    8    1         0.6110342001E+00      0.1485717977E+01
          0                 4           2             4    7     1      -0.4322545967E-03       5    8    1        -0.2499136075E-01      0.6076602377E-01
          0                 5           1             4    7     1       0.5329885662E-05       5    8    1         0.3167175314E-03      0.7700927572E-03

    ------------------------------------------------
       NWT REQUIRED            5 OUTER ITERATIONS 
       AND A TOTAL OF          9 INNER ITERATIONS.
    ------------------------------------------------

 NO OUTPUT CONTROL FOR STRESS PERIOD   33   TIME STEP    9
 
 SOLVING FOR HEAD 
                                                   Max.-Head-Change                         Max.-Flux-Residual
  Residual-Control   Outer-Iter.   Inner-Iter.     Column Row Layer    Maximum-Head-Change  Column Row Layer    Maximum-Flux-Residual          L2-NORM 
          0                 1           2             5    8     1       0.1119211844E+00       5    8    1         0.6074545075E+01      0.1472707859E+02
          0                 2           2             4    7     1      -0.1596136016E+00       5    8    1        -0.8727427604E+01      0.2122698980E+02
          0                 3           2             4    7     1       0.1086868632E-01       5    8    1         0.6108981432E+00      0.1485834265E+01
          0                 4           2             4    7     1      -0.4324757403E-03       5    8    1        -0.2498579596E-01      0.6077078013E-01
          0                 5           1             4    7     1       0.5332612328E-05       5    8    1         0.3166470028E-03      0.7701534558E-03

    ------------------------------------------------
       NWT REQUIRED            5 OUTER ITERATIONS 
       AND A TOTAL OF          9 INNER ITERATIONS.
    ------------------------------------------------

 NO OUTPUT CONTROL FOR STRESS PERIOD   33   TIME STEP   10
 
 SOLVING FOR HEAD 
                                                   Max.-Head-Change                         Max.-Flux-Residual
  Residual-Control   Outer-Iter.   Inner-Iter.     Column Row Layer    Maximum-Head-Change  Column Row Layer    Maximum-Flux-Residual          L2-NORM 
          0                 1           2             5    8     1       0.1116296279E+00       5    8    1         0.6057333779E+01      0.1472439080E+02
          0                 2           2             4    7     1      -0.1596924081E+00       5    8    1        -0.8725706507E+01      0.2122876605E+02
          0                 3           2             4    7     1       0.1087405182E-01       5    8    1         0.6107776792E+00      0.1485958560E+01
          0                 4           2             4    7     1      -0.4326892429E-03       5    8    1        -0.2498086891E-01      0.6077586400E-01
          0                 5           1             4    7     1       0.5335244900E-05       5    8    1         0.3165845519E-03      0.7702174428E-03

    ------------------------------------------------
       NWT REQUIRED            5 OUTER ITERATIONS 
       AND A TOTAL OF          9 INNER ITERATIONS.
    ------------------------------------------------

 NO OUTPUT CONTROL FOR STRESS PERIOD   33   TIME STEP   11
 
 SOLVING FOR HEAD 
                                                   Max.-Head-Change                         Max.-Flux-Residual
  Residual-Control   Outer-Iter.   Inner-Iter.     Column Row Layer    Maximum-Head-Change  Column Row Layer    Maximum-Flux-Residual          L2-NORM 
          0                 1           2             5    8     1       0.1113742601E+00       5    8    1         0.6042167050E+01      0.1472402821E+02
          0                 2           2             4    7     1      -0.1597685323E+00       5    8    1        -0.8724189866E+01      0.2123064638E+02
          0                 3           2             4    7     1       0.1087923470E-01       5    8    1         0.6106715259E+00      0.1486090144E+01
          0                 4           2             4    7     1      -0.4328954793E-03       5    8    1        -0.2497652718E-01      0.6078124601E-01
          0                 5           1             4    7     1       0.5337788197E-05       5    8    1         0.3165295348E-03      0.7702857057E-03

    ------------------------------------------------
       NWT REQUIRED            5 OUTER ITERATIONS 
       AND A TOTAL OF          9 INNER ITERATIONS.
    ------------------------------------------------

 NO OUTPUT CONTROL FOR STRESS PERIOD   33   TIME STEP   12
 
 SOLVING FOR HEAD 
                                                   Max.-Head-Change                         Max.-Flux-Residual
  Residual-Control   Outer-Iter.   Inner-Iter.     Column Row Layer    Maximum-Head-Change  Column Row Layer    Maximum-Flux-Residual          L2-NORM 
          0                 1           2             5    8     1       0.1111523939E+00       5    8    1         0.6028892142E+01      0.1472580087E+02
          0                 2           2             4    7     1      -0.1598421065E+00       5    8    1        -0.8722862406E+01      0.2123262283E+02
          0                 3           2             4    7     1       0.1088424398E-01       5    8    1         0.6105786142E+00      0.1486228457E+01
          0                 4           2             4    7     1      -0.4330948074E-03       5    8    1        -0.2497272702E-01      0.6078690317E-01
          0                 5           1             4    7     1       0.5340246139E-05       5    8    1         0.3164813711E-03      0.7703574503E-03

    ------------------------------------------------
       NWT REQUIRED            5 OUTER ITERATIONS 
       AND A TOTAL OF          9 INNER ITERATIONS.
    ------------------------------------------------

 NO OUTPUT CONTROL FOR STRESS PERIOD   33   TIME STEP   13
 
 SOLVING FOR HEAD 
                                                   Max.-Head-Change                         Max.-Flux-Residual
  Residual-Control   Outer-Iter.   Inner-Iter.     Column Row Layer    Maximum-Head-Change  Column Row Layer    Maximum-Flux-Residual          L2-NORM 
          0                 1           2             5    8     1       0.1109611426E+00       5    8    1         0.6017346430E+01      0.1472950138E+02
          0                 2           2             4    7     1      -0.1599132430E+00       5    8    1        -0.8721707865E+01      0.2123468407E+02
          0                 3           2             4    7     1       0.1088908730E-01       5    8    1         0.6104978058E+00      0.1486372708E+01
          0                 4           2             4    7     1      -0.4332875312E-03       5    8    1        -0.2496942191E-01      0.6079280322E-01
          0                 5           1             4    7     1       0.5342622085E-05       5    8    1         0.3164394848E-03      0.7704321868E-03

    ------------------------------------------------
       NWT REQUIRED            5 OUTER ITERATIONS 
       AND A TOTAL OF          9 INNER ITERATIONS.
    ------------------------------------------------

 NO OUTPUT CONTROL FOR STRESS PERIOD   33   TIME STEP   14
 
 SOLVING FOR HEAD 
                                                   Max.-Head-Change                         Max.-Flux-Residual
  Residual-Control   Outer-Iter.   Inner-Iter.     Column Row Layer    Maximum-Head-Change  Column Row Layer    Maximum-Flux-Residual          L2-NORM 
          0                 1           2             5    8     1       0.1107981446E+00       5    8    1         0.6007395782E+01      0.1473498494E+02
          0                 2           2             4    7     1      -0.1599820627E+00       5    8    1        -0.8720712829E+01      0.2123682470E+02
          0                 3           2             4    7     1       0.1089377289E-01       5    8    1         0.6104281618E+00      0.1486522517E+01
          0                 4           2             4    7     1      -0.4334739787E-03       5    8    1        -0.2496657344E-01      0.6079893054E-01
          0                 5           1             4    7     1       0.5344921302E-05       5    8    1         0.3164034038E-03      0.7705097820E-03

    ------------------------------------------------
       NWT REQUIRED            5 OUTER ITERATIONS 
       AND A TOTAL OF          9 INNER ITERATIONS.
    ------------------------------------------------

 NO OUTPUT CONTROL FOR STRESS PERIOD   33   TIME STEP   15
 
 SOLVING FOR HEAD 
                                                   Max.-Head-Change                         Max.-Flux-Residual
  Residual-Control   Outer-Iter.   Inner-Iter.     Column Row Layer    Maximum-Head-Change  Column Row Layer    Maximum-Flux-Residual          L2-NORM 
          0                 1           2             5    8     1       0.1106612286E+00       5    8    1         0.5998917756E+01      0.1474209260E+02
          0                 2           2             4    7     1      -0.1600486800E+00       5    8    1        -0.8719865055E+01      0.2123903633E+02
          0                 3           2             4    7     1       0.1089830853E-01       5    8    1         0.6103688253E+00      0.1486677296E+01
          0                 4           2             4    7     1      -0.4336544601E-03       5    8    1        -0.2496414653E-01      0.6080526120E-01
          0                 5           1             4    7     1       0.5347146589E-05       5    8    1         0.3163726365E-03      0.7705901473E-03

    ------------------------------------------------
       NWT REQUIRED            5 OUTER ITERATIONS 
       AND A TOTAL OF          9 INNER ITERATIONS.
    ------------------------------------------------

 NO OUTPUT CONTROL FOR STRESS PERIOD   33   TIME STEP   16
 
 SOLVING FOR HEAD 
                                                   Max.-Head-Change                         Max.-Flux-Residual
  Residual-Control   Outer-Iter.   Inner-Iter.     Column Row Layer    Maximum-Head-Change  Column Row Layer    Maximum-Flux-Residual          L2-NORM 
          0                 1           2             5    8     1       0.1105482624E+00       5    8    1         0.5991792013E+01      0.1475068374E+02
          0                 2           2             4    7     1      -0.1601131778E+00       5    8    1        -0.8719152509E+01      0.2124131190E+02
          0                 3           2             4    7     1       0.1090269989E-01       5    8    1         0.6103189539E+00      0.1486836553E+01
          0                 4           2             4    7     1      -0.4338291992E-03       5    8    1        -0.2496210677E-01      0.6081177497E-01
          0                 5           1             4    7     1       0.5349301306E-05       5    8    1         0.3163468109E-03      0.7706725729E-03

    ------------------------------------------------
       NWT REQUIRED            5 OUTER ITERATIONS 
       AND A TOTAL OF          9 INNER ITERATIONS.
    ------------------------------------------------

 NO OUTPUT CONTROL FOR STRESS PERIOD   33   TIME STEP   17
 
 SOLVING FOR HEAD 
                                                   Max.-Head-Change                         Max.-Flux-Residual
  Residual-Control   Outer-Iter.   Inner-Iter.     Column Row Layer    Maximum-Head-Change  Column Row Layer    Maximum-Flux-Residual          L2-NORM 
          0                 1           2             5    8     1       0.1104574372E+00       5    8    1         0.5985915767E+01      0.1476062796E+02
          0                 2           2             4    7     1      -0.1601756870E+00       5    8    1        -0.8718564912E+01      0.2124364549E+02
          0                 3           2             4    7     1       0.1090695586E-01       5    8    1         0.6102778282E+00      0.1486999873E+01
          0                 4           2             4    7     1      -0.4339985514E-03       5    8    1        -0.2496042468E-01      0.6081845491E-01
          0                 5           1             4    7     1       0.5351389039E-05       5    8    1         0.3163254783E-03      0.7707571855E-03

    ------------------------------------------------
       NWT REQUIRED            5 OUTER ITERATIONS 
       AND A TOTAL OF          9 INNER ITERATIONS.
    ------------------------------------------------

 NO OUTPUT CONTROL FOR STRESS PERIOD   33   TIME STEP   18
 
 SOLVING FOR HEAD 
                                                   Max.-Head-Change                         Max.-Flux-Residual
  Residual-Control   Outer-Iter.   Inner-Iter.     Column Row Layer    Maximum-Head-Change  Column Row Layer    Maximum-Flux-Residual          L2-NORM 
          0                 1           2             5    8     1       0.1103867998E+00       5    8    1         0.5981179707E+01      0.1477180751E+02
          0                 2           2             4    7     1      -0.1602362668E+00       5    8    1        -0.8718091333E+01      0.2124603055E+02
          0                 3           2             4    7     1       0.1091108047E-01       5    8    1         0.6102446832E+00      0.1487166796E+01
          0                 4           2             4    7     1      -0.4341626770E-03       5    8    1        -0.2495906904E-01      0.6082528223E-01
          0                 5           1             4    7     1       0.5353413147E-05       5    8    1         0.3163082797E-03      0.7708455498E-03

    ------------------------------------------------
       NWT REQUIRED            5 OUTER ITERATIONS 
       AND A TOTAL OF          9 INNER ITERATIONS.
    ------------------------------------------------

 NO OUTPUT CONTROL FOR STRESS PERIOD   33   TIME STEP   19
 
 SOLVING FOR HEAD 
                                                   Max.-Head-Change                         Max.-Flux-Residual
  Residual-Control   Outer-Iter.   Inner-Iter.     Column Row Layer    Maximum-Head-Change  Column Row Layer    Maximum-Flux-Residual          L2-NORM 
          0                 1           2             5    8     1       0.1103348406E+00       5    8    1         0.5977498098E+01      0.1478412313E+02
          0                 2           2             4    7     1      -0.1602950512E+00       5    8    1        -0.8717723199E+01      0.2124846269E+02
          0                 3           2             4    7     1       0.1091508285E-01       5    8    1         0.6102189186E+00      0.1487337017E+01
          0                 4           2             4    7     1      -0.4343219385E-03       5    8    1        -0.2495801522E-01      0.6083224473E-01
          0                 5           1             4    7     1       0.5355377215E-05       5    8    1         0.3162949247E-03      0.7709320050E-03

    ------------------------------------------------
       NWT REQUIRED            5 OUTER ITERATIONS 
       AND A TOTAL OF          9 INNER ITERATIONS.
    ------------------------------------------------

 NO OUTPUT CONTROL FOR STRESS PERIOD   33   TIME STEP   20
 
 SOLVING FOR HEAD 
                                                   Max.-Head-Change                         Max.-Flux-Residual
  Residual-Control   Outer-Iter.   Inner-Iter.     Column Row Layer    Maximum-Head-Change  Column Row Layer    Maximum-Flux-Residual          L2-NORM 
          0                 1           2             5    8     1       0.1103000303E+00       5    8    1         0.5974784904E+01      0.1479745573E+02
          0                 2           2             4    7     1      -0.1603520894E+00       5    8    1        -0.8717451905E+01      0.2125093528E+02
          0                 3           2             4    7     1       0.1091896635E-01       5    8    1         0.6101999323E+00      0.1487510069E+01
          0                 4           2             4    7     1      -0.4344764695E-03       5    8    1        -0.2495723868E-01      0.6083932240E-01
          0                 5           1             4    7     1       0.5357282251E-05       5    8    1         0.3162850858E-03      0.7710217652E-03

    ------------------------------------------------
       NWT REQUIRED            5 OUTER ITERATIONS 
       AND A TOTAL OF          9 INNER ITERATIONS.
    ------------------------------------------------

 NO OUTPUT CONTROL FOR STRESS PERIOD   33   TIME STEP   21
 
 SOLVING FOR HEAD 
                                                   Max.-Head-Change                         Max.-Flux-Residual
  Residual-Control   Outer-Iter.   Inner-Iter.     Column Row Layer    Maximum-Head-Change  Column Row Layer    Maximum-Flux-Residual          L2-NORM 
          0                 1           2             5    8     1       0.1102809630E+00       5    8    1         0.5972960837E+01      0.1481172710E+02
          0                 2           2             4    7     1      -0.1604074674E+00       5    8    1        -0.8717269524E+01      0.2125344466E+02
          0                 3           2             4    7     1       0.1092273682E-01       5    8    1         0.6101871694E+00      0.1487685698E+01
          0                 4           2             4    7     1      -0.4346265023E-03       5    8    1        -0.2495671665E-01      0.6084650575E-01
          0                 5           1             4    7     1       0.5359132176E-05       5    8    1         0.3162784865E-03      0.7711129531E-03

    ------------------------------------------------
       NWT REQUIRED            5 OUTER ITERATIONS 
       AND A TOTAL OF          9 INNER ITERATIONS.
    ------------------------------------------------

 NO OUTPUT CONTROL FOR STRESS PERIOD   33   TIME STEP   22
 
 SOLVING FOR HEAD 
                                                   Max.-Head-Change                         Max.-Flux-Residual
  Residual-Control   Outer-Iter.   Inner-Iter.     Column Row Layer    Maximum-Head-Change  Column Row Layer    Maximum-Flux-Residual          L2-NORM 
          0                 1           2             5    8     1       0.1102766244E+00       5    8    1         0.5971968534E+01      0.1482685567E+02
          0                 2           2             4    7     1      -0.1604612917E+00       5    8    1        -0.8717170320E+01      0.2125598654E+02
          0                 3           2             4    7     1       0.1092640152E-01       5    8    1         0.6101802282E+00      0.1487863602E+01
          0                 4           2             4    7     1      -0.4347723268E-03       5    8    1        -0.2495643275E-01      0.6085378216E-01
          0                 5           1             4    7     1       0.5360930014E-05       5    8    1         0.3162748890E-03      0.7712090949E-03

    ------------------------------------------------
       NWT REQUIRED            5 OUTER ITERATIONS 
       AND A TOTAL OF          9 INNER ITERATIONS.
    ------------------------------------------------

 NO OUTPUT CONTROL FOR STRESS PERIOD   33   TIME STEP   23
 
 SOLVING FOR HEAD 
                                                   Max.-Head-Change                         Max.-Flux-Residual
  Residual-Control   Outer-Iter.   Inner-Iter.     Column Row Layer    Maximum-Head-Change  Column Row Layer    Maximum-Flux-Residual          L2-NORM 
          0                 1           2             5    8     1       0.1102855220E+00       5    8    1         0.5971724347E+01      0.1484275789E+02
          0                 2           2             4    7     1      -0.1605135995E+00       5    8    1        -0.8717145926E+01      0.2125855647E+02
          0                 3           2             4    7     1       0.1092996296E-01       5    8    1         0.6101785235E+00      0.1488043471E+01
          0                 4           2             4    7     1      -0.4349140424E-03       5    8    1        -0.2495636300E-01      0.6086113889E-01
          0                 5           1             4    7     1       0.5362677334E-05       5    8    1         0.3162739936E-03      0.7713367133E-03

    ------------------------------------------------
       NWT REQUIRED            5 OUTER ITERATIONS 
       AND A TOTAL OF          9 INNER ITERATIONS.
    ------------------------------------------------

 NO OUTPUT CONTROL FOR STRESS PERIOD   33   TIME STEP   24
 
 SOLVING FOR HEAD 
                                                   Max.-Head-Change                         Max.-Flux-Residual
  Residual-Control   Outer-Iter.   Inner-Iter.     Column Row Layer    Maximum-Head-Change  Column Row Layer    Maximum-Flux-Residual          L2-NORM 
          0                 1           2             5    8     1       0.1103067031E+00       5    8    1         0.5972174194E+01      0.1485935487E+02
          0                 2           2             4    7     1      -0.1605644768E+00       5    8    1        -0.8717190936E+01      0.2126115055E+02
          0                 3           2             4    7     1       0.1093342702E-01       5    8    1         0.6101816765E+00      0.1488225031E+01
          0                 4           2             4    7     1      -0.4350518829E-03       5    8    1        -0.2495649195E-01      0.6086856487E-01
          0                 5           1             4    7     1       0.5364377271E-05       5    8    1         0.3162756352E-03      0.7713945469E-03

    ------------------------------------------------
       NWT REQUIRED            5 OUTER ITERATIONS 
       AND A TOTAL OF          9 INNER ITERATIONS.
    ------------------------------------------------

 NO OUTPUT CONTROL FOR STRESS PERIOD   33   TIME STEP   25
 
 SOLVING FOR HEAD 
                                                   Max.-Head-Change                         Max.-Flux-Residual
  Residual-Control   Outer-Iter.   Inner-Iter.     Column Row Layer    Maximum-Head-Change  Column Row Layer    Maximum-Flux-Residual          L2-NORM 
          0                 1           2             5    8     1       0.1103392846E+00       5    8    1         0.5973268672E+01      0.1487659316E+02
          0                 2           2             4    7     1      -0.1606140054E+00       5    8    1        -0.8717300409E+01      0.2126376573E+02
          0                 3           2             4    7     1       0.1093679926E-01       5    8    1         0.6101893415E+00      0.1488408068E+01
          0                 4           2             4    7     1      -0.4351860697E-03       5    8    1        -0.2495680544E-01      0.6087605119E-01
          0                 5           1             4    7     1       0.5366031954E-05       5    8    1         0.3162796047E-03      0.7714871457E-03

    ------------------------------------------------
       NWT REQUIRED            5 OUTER ITERATIONS 
       AND A TOTAL OF          9 INNER ITERATIONS.
    ------------------------------------------------

 NO OUTPUT CONTROL FOR STRESS PERIOD   33   TIME STEP   26
 
 SOLVING FOR HEAD 
                                                   Max.-Head-Change                         Max.-Flux-Residual
  Residual-Control   Outer-Iter.   Inner-Iter.     Column Row Layer    Maximum-Head-Change  Column Row Layer    Maximum-Flux-Residual          L2-NORM 
          0                 1           2             5    8     1       0.1103821783E+00       5    8    1         0.5974946471E+01      0.1489440188E+02
          0                 2           2             4    7     1      -0.1606622113E+00       5    8    1        -0.8717468213E+01      0.2126639833E+02
          0                 3           2             4    7     1       0.1094008145E-01       5    8    1         0.6102010895E+00      0.1488592326E+01
          0                 4           2             4    7     1      -0.4353166735E-03       5    8    1        -0.2495728593E-01      0.6088358744E-01
          0                 5           1             4    7     1       0.5367642503E-05       5    8    1         0.3162856960E-03      0.7715850829E-03

    ------------------------------------------------
       NWT REQUIRED            5 OUTER ITERATIONS 
       AND A TOTAL OF          9 INNER ITERATIONS.
    ------------------------------------------------

 NO OUTPUT CONTROL FOR STRESS PERIOD   33   TIME STEP   27
 
 SOLVING FOR HEAD 
                                                   Max.-Head-Change                         Max.-Flux-Residual
  Residual-Control   Outer-Iter.   Inner-Iter.     Column Row Layer    Maximum-Head-Change  Column Row Layer    Maximum-Flux-Residual          L2-NORM 
          0                 1           2             5    8     1       0.1104346589E+00       5    8    1         0.5977166694E+01      0.1491273012E+02
          0                 2           2             4    7     1      -0.1607091834E+00       5    8    1        -0.8717690260E+01      0.2126904594E+02
          0                 3           2             4    7     1       0.1094327964E-01       5    8    1         0.6102166340E+00      0.1488777636E+01
          0                 4           2             4    7     1      -0.4354439344E-03       5    8    1        -0.2495792170E-01      0.6089116671E-01
          0                 5           1             4    7     1       0.5369211495E-05       5    8    1         0.3162937574E-03      0.7716788785E-03

    ------------------------------------------------
       NWT REQUIRED            5 OUTER ITERATIONS 
       AND A TOTAL OF          9 INNER ITERATIONS.
    ------------------------------------------------

 NO OUTPUT CONTROL FOR STRESS PERIOD   33   TIME STEP   28
 
 SOLVING FOR HEAD 
                                                   Max.-Head-Change                         Max.-Flux-Residual
  Residual-Control   Outer-Iter.   Inner-Iter.     Column Row Layer    Maximum-Head-Change  Column Row Layer    Maximum-Flux-Residual          L2-NORM 
          0                 1           2             5    8     1       0.1104957783E+00       5    8    1         0.5979876226E+01      0.1493152585E+02
          0                 2           2             4    7     1      -0.1607549671E+00       5    8    1        -0.8717961238E+01      0.2127170593E+02
          0                 3           2             4    7     1       0.1094639692E-01       5    8    1         0.6102356034E+00      0.1488963812E+01
          0                 4           2             4    7     1      -0.4355679758E-03       5    8    1        -0.2495869755E-01      0.6089878149E-01
          0                 5           1             4    7     1       0.5370740946E-05       5    8    1         0.3163035731E-03      0.7717751837E-03

    ------------------------------------------------
       NWT REQUIRED            5 OUTER ITERATIONS 
       AND A TOTAL OF          9 INNER ITERATIONS.
    ------------------------------------------------

 NO OUTPUT CONTROL FOR STRESS PERIOD   33   TIME STEP   29
 
 SOLVING FOR HEAD 
                                                   Max.-Head-Change                         Max.-Flux-Residual
  Residual-Control   Outer-Iter.   Inner-Iter.     Column Row Layer    Maximum-Head-Change  Column Row Layer    Maximum-Flux-Residual          L2-NORM 
          0                 1           2             5    8     1       0.1105650786E+00       5    8    1         0.5983049173E+01      0.1495073385E+02
          0                 2           2             4    7     1      -0.1607996180E+00       5    8    1        -0.8718278557E+01      0.2127437444E+02
          0                 3           2             4    7     1       0.1094943708E-01       5    8    1         0.6102578164E+00      0.1489150585E+01
          0                 4           2             4    7     1      -0.4356889486E-03       5    8    1        -0.2495960606E-01      0.6090642064E-01
          0                 5           1             4    7     1       0.5372232647E-05       5    8    1         0.3163151109E-03      0.7718919759E-03

    ------------------------------------------------
       NWT REQUIRED            5 OUTER ITERATIONS 
       AND A TOTAL OF          9 INNER ITERATIONS.
    ------------------------------------------------

 NO OUTPUT CONTROL FOR STRESS PERIOD   33   TIME STEP   30



 STREAM LISTING     PERIOD     33   STEP       30

 LAYER ROW COL. STREAM  RCH.  FLOW INTO     FLOW TO   FLOW OUT OF   OVRLND.     DIRECT     STREAM       STREAM     STREAM     STREAM   STREAMBED  STREAMBED
                SEG.NO.  NO.  STRM. RCH.    AQUIFER    STRM. RCH.    RUNOFF     PRECIP       ET          HEAD       DEPTH      WIDTH   CONDCTNC.   GRADIENT

   1    1    1     1     1    1.9000E+01  2.1427E-01   1.8786E+01  0.000E+00  0.000E+00  0.000E+00  1.09413E+03  1.082E+00  1.166E+01  5.249E-02  1.361E+00
   1    2    2     1     2    1.8786E+01  3.3054E-01   1.8455E+01  0.000E+00  0.000E+00  0.000E+00  1.08914E+03  1.077E+00  1.158E+01  8.107E-02  1.359E+00
   1    3    3     1     3    1.8455E+01  2.8064E-01   1.8175E+01  0.000E+00  0.000E+00  0.000E+00  1.08349E+03  1.072E+00  1.149E+01  6.892E-02  1.357E+00
   1    3    4     1     4    1.8175E+01  2.5740E-01   1.7917E+01  0.000E+00  0.000E+00  0.000E+00  1.07848E+03  1.068E+00  1.140E+01  6.328E-02  1.356E+00
   1    4    5     2     1    1.5917E+01  3.0542E-01   1.5612E+01  0.000E+00  0.000E+00  0.000E+00  1.07285E+03  9.157E-01  1.200E+01  7.800E-02  1.305E+00
   1    5    6     2     2    1.5612E+01  2.3438E-01   1.5377E+01  0.000E+00  0.000E+00  0.000E+00  1.06742E+03  9.063E-01  1.200E+01  6.000E-02  1.302E+00
   1    6    6     2     3    1.5377E+01  2.3388E-01   1.5143E+01  0.000E+00  0.000E+00  0.000E+00  1.06269E+03  8.980E-01  1.200E+01  6.000E-02  1.299E+00
   1    7    6     2     4    1.5143E+01  2.3338E-01   1.4910E+01  0.000E+00  0.000E+00  0.000E+00  1.05797E+03  8.897E-01  1.200E+01  6.000E-02  1.297E+00
   1    8    6     2     5    1.4910E+01  2.3289E-01   1.4677E+01  0.000E+00  0.000E+00  0.000E+00  1.05324E+03  8.814E-01  1.200E+01  6.000E-02  1.294E+00
   1    3    5     3     1    2.0000E+00  2.8252E-01   1.7175E+00  0.000E+00  0.000E+00  0.000E+00  1.07555E+03  1.909E+00  9.636E+00  7.227E-02  1.955E+00
   1    3    6     3     2    1.7175E+00  2.4905E-01   1.4684E+00  0.000E+00  0.000E+00  0.000E+00  1.07264E+03  1.727E+00  8.909E+00  6.682E-02  1.864E+00
   1    3    7     3     3    1.4684E+00  1.9718E-01   1.2712E+00  0.000E+00  0.000E+00  0.000E+00  1.06987E+03  1.555E+00  8.218E+00  5.547E-02  1.777E+00
   1    4    8     3     4    1.2712E+00  2.2567E-01   1.0456E+00  0.000E+00  0.000E+00  0.000E+00  1.06682E+03  1.364E+00  7.455E+00  6.709E-02  1.682E+00
   1    5    8     3     5    1.0456E+00  1.5790E-01   8.8768E-01  0.000E+00  0.000E+00  0.000E+00  1.06362E+03  1.164E+00  6.655E+00  4.991E-02  1.582E+00
   1    6    8     3     6    8.8768E-01  5.5980E-02   8.3170E-01  0.000E+00  0.000E+00  0.000E+00  1.06158E+03  1.036E+00  6.145E+00  1.844E-02  1.518E+00
   1    5   10     4     1    1.0000E+01  9.0919E-02   9.9091E+00  0.000E+00  0.000E+00  0.000E+00  1.07836E+03  6.368E-01  1.000E+01  2.500E-02  1.212E+00
   1    5    9     4     2    9.9091E+00  1.8158E-01   9.7275E+00  0.000E+00  0.000E+00  0.000E+00  1.07154E+03  6.315E-01  1.000E+01  5.000E-02  1.211E+00
   1    6    8     4     3    9.7275E+00  1.2689E-01   9.6006E+00  0.000E+00  0.000E+00  0.000E+00  1.06381E+03  6.256E-01  1.000E+01  3.500E-02  1.209E+00
   1    6    8     5     1    1.0432E+01  2.2686E-01   1.0205E+01  0.000E+00  0.000E+00  0.000E+00  1.05868E+03  6.790E-01  1.542E+01  6.166E-02  1.226E+00
   1    7    7     5     2    1.0205E+01  2.7894E-01   9.9265E+00  0.000E+00  0.000E+00  0.000E+00  1.05417E+03  6.732E-01  1.519E+01  7.594E-02  1.224E+00
   1    8    7     5     3    9.9265E+00  1.9221E-01   9.7343E+00  0.000E+00  0.000E+00  0.000E+00  1.04992E+03  6.676E-01  1.497E+01  5.241E-02  1.223E+00
   1    8    6     5     4    9.7343E+00  1.3577E-01   9.5985E+00  0.000E+00  0.000E+00  0.000E+00  1.04691E+03  6.637E-01  1.482E+01  3.706E-02  1.221E+00
   1    9    6     6     1    2.4276E+01  2.5176E-01   2.4024E+01  0.000E+00  0.000E+00  0.000E+00  1.04392E+03  1.196E+00  1.200E+01  6.000E-02  1.399E+00
   1   10    7     6     2    2.4024E+01  2.5131E-01   2.3773E+01  0.000E+00  0.000E+00  0.000E+00  1.03937E+03  1.188E+00  1.200E+01  6.000E-02  1.396E+00
   1   11    7     6     3    2.3773E+01  2.5086E-01   2.3522E+01  0.000E+00  0.000E+00  0.000E+00  1.03482E+03  1.181E+00  1.200E+01  6.000E-02  1.394E+00
   1   12    7     6     4    2.3522E+01  2.5041E-01   2.3271E+01  0.000E+00  0.000E+00  0.000E+00  1.03026E+03  1.173E+00  1.200E+01  6.000E-02  1.391E+00
   1   13    7     6     5    2.3271E+01  6.8470E-03   2.3265E+01  0.000E+00  0.000E+00  0.000E+00  1.02708E+03  1.170E+00  1.200E+01  2.400E-02  9.510E-02
   1   14    9     7     1    1.5000E+02  1.3516E+00   1.4865E+02  0.000E+00  0.000E+00  0.000E+00  1.03987E+03  2.288E+00  5.529E+01  5.593E-01  8.056E-01
   1   13    8     7     2    1.4865E+02  1.9137E+00   1.4673E+02  0.000E+00  0.000E+00  0.000E+00  1.03478E+03  2.279E+00  5.526E+01  6.148E-01  1.038E+00
   1   13    7     7     3    1.4673E+02  1.6169E+00   1.4512E+02  0.000E+00  0.000E+00  0.000E+00  1.02969E+03  2.270E+00  5.521E+01  5.584E-01  9.652E-01
   1   13    6     8     1    1.6838E+02  1.0559E+00   1.6733E+02  0.000E+00  0.000E+00  0.000E+00  1.02481E+03  2.938E+00  4.260E+01  4.341E-01  8.107E-01
   1   13    5     8     2    1.6733E+02  2.9998E-01   1.6703E+02  0.000E+00  0.000E+00  0.000E+00  1.01856E+03  2.934E+00  4.254E+01  4.335E-01  2.307E-01
   1   13    4     8     3    1.6703E+02 -2.0222E+00   1.6905E+02  0.000E+00  0.000E+00  0.000E+00  1.01231E+03  2.939E+00  4.262E+01  4.343E+00 -1.552E-01
   1   13    3     8     4    1.6905E+02 -3.4452E+00   1.7249E+02  0.000E+00  0.000E+00  0.000E+00  1.00608E+03  2.957E+00  4.288E+01  4.370E+00 -2.628E-01
   1   13    2     8     5    1.7249E+02 -2.5267E+00   1.7502E+02  0.000E+00  0.000E+00  0.000E+00  9.99852E+02  2.977E+00  4.316E+01  4.398E+00 -1.915E-01
   1   13    1     8     6    1.7502E+02 -1.9697E+00   1.7699E+02  0.000E+00  0.000E+00  0.000E+00  9.94866E+02  2.991E+00  4.337E+01  2.652E+00 -2.476E-01





UNSATURATED ZONE PACKAGE VOLUMETRIC BUDGET FOR  TIME STEP    30 STRESS PERIOD   33
  ------------------------------------------------------------------------------



     CUMULATIVE VOLUMES      L**3       RATES FOR THIS TIME STEP      L**3/T
     ------------------                 ------------------------

           IN:                                      IN:
           ---                                      ---
        INFILTRATION =  1347034907.7634          INFILTRATION =          49.5675

          OUT:                                     OUT:
          ----                                     ----
              UZF ET =  1233163570.6741                UZF ET =          49.5675
        UZF RECHARGE =    75864354.0216          UZF RECHARGE =       0.0000E+00

            IN - OUT =    38006983.0677              IN - OUT =       0.0000E+00

          STORAGE:                                 STORAGE:
          --------                                 --------
      STORAGE CHANGE =    38006984.8366        STORAGE CHANGE =       9.1096E-13

 PERCENT DISCREPANCY IS DIFFERENCE BETWEEN IN-OUT MINUS CHANGE IN STORAGE
 DIVIDED BY THE AVERAGE OF IN AND OUT TIMES 100

 PERCENT DISCREPANCY =           0.00     PERCENT DISCREPANCY =           0.00






1
  VOLUMETRIC BUDGET FOR AGRICULTURAL FIELDS AT  END OF TIME STEP   30, STRESS PERIOD  33
  ------------------------------------------------------------------------------

     CUMULATIVE VOLUMES      L**3       RATES FOR THIS TIME STEP      L**3/T
     ------------------                 ------------------------

           IN:                                      IN:
           ---                                      ---
               AG WELLS  =  1275634176.0000                 AG WELLS  =          48.7200
      DIVERSION SEGMENTS =           0.0000        DIVERSION SEGMENTS =           0.0000
       IRRIGATION PONDS  =           0.0000         IRRIGATION PONDS  =           0.0000
           GW IRRIGATION =           0.0000             GW IRRIGATION =           0.0000
           SW IRRIGATION =           0.0000             SW IRRIGATION =           0.0000
        SYSTEM LOSSES GW =           0.0000          SYSTEM LOSSES GW =           0.0000
        SYSTEM LOSSES SW =           0.0000          SYSTEM LOSSES SW =           0.0000

                TOTAL IN =  1275634176.0000                  TOTAL IN =          48.7200

          OUT:                                     OUT:
          ----                                     ----
               AG WELLS  =           0.0000                 AG WELLS  =           0.0000
      DIVERSION SEGMENTS =           0.0000        DIVERSION SEGMENTS =           0.0000
       IRRIGATION PONDS  =           0.0000         IRRIGATION PONDS  =           0.0000
           GW IRRIGATION =  1275634176.0000             GW IRRIGATION =          48.7200
           SW IRRIGATION =           0.0000             SW IRRIGATION =           0.0000
        SYSTEM LOSSES GW =           0.0000          SYSTEM LOSSES GW =           0.0000
        SYSTEM LOSSES SW =           0.0000          SYSTEM LOSSES SW =           0.0000

               TOTAL OUT =  1275634176.0000                 TOTAL OUT =          48.7200

                IN - OUT =           0.0000                  IN - OUT =           0.0000

     PERCENT DISCREPANCY =           0.00         PERCENT DISCREPANCY =           0.00



1
  VOLUMETRIC BUDGET FOR ENTIRE MODEL AT END OF TIME STEP   30, STRESS PERIOD  33
  ------------------------------------------------------------------------------

     CUMULATIVE VOLUMES      L**3       RATES FOR THIS TIME STEP      L**3/T
     ------------------                 ------------------------

           IN:                                      IN:
           ---                                      ---
             STORAGE     =  1579090304.0000               STORAGE     =          46.7771
       CONSTANT HEAD     =           0.0000         CONSTANT HEAD     =           0.0000
     HEAD DEP BOUNDS     =    24068316.0000       HEAD DEP BOUNDS     =           0.2868
      STREAM LEAKAGE     =  1034177792.0000        STREAM LEAKAGE     =          11.9736
        UZF RECHARGE     =    75864392.0000          UZF RECHARGE     =           0.0000
               GW ET     =           0.0000                 GW ET     =           0.0000
     SURFACE LEAKAGE     =           0.0000       SURFACE LEAKAGE     =           0.0000
           AG WELLS      =           0.0000             AG WELLS      =           0.0000

                TOTAL IN =  2713200896.0000                  TOTAL IN =          59.0375

          OUT:                                     OUT:
          ----                                     ----
             STORAGE     =   527601984.0000               STORAGE     =       6.4591E-02
       CONSTANT HEAD     =           0.0000         CONSTANT HEAD     =           0.0000
     HEAD DEP BOUNDS     =    24672044.0000       HEAD DEP BOUNDS     =           0.2891
      STREAM LEAKAGE     =   867687872.0000        STREAM LEAKAGE     =           9.9638
        UZF RECHARGE     =           0.0000          UZF RECHARGE     =           0.0000
               GW ET     =    17607784.0000                 GW ET     =           0.0000
     SURFACE LEAKAGE     =           0.0000       SURFACE LEAKAGE     =           0.0000
           AG WELLS      =  1275634176.0000             AG WELLS      =          48.7200

               TOTAL OUT =  2713203712.0000                 TOTAL OUT =          59.0375

                IN - OUT =       -2816.0000                  IN - OUT =       3.0518E-05

     PERCENT DISCREPANCY =          -0.00         PERCENT DISCREPANCY =           0.00






         TIME SUMMARY AT END OF TIME STEP   30 IN STRESS PERIOD   33
                    SECONDS     MINUTES      HOURS       DAYS        YEARS
                    -----------------------------------------------------------
   TIME STEP LENGTH  87667.      1461.1      24.352      1.0147     2.77799E-03
 STRESS PERIOD TIME 2.63000E+06  43833.      730.56      30.440     8.33397E-02
         TOTAL TIME 8.42463E+07 1.40410E+06  23402.      975.07      2.6696    
1
1
                            STRESS PERIOD NO.   34, LENGTH =   2630000.    
                            -----------------------------------------------

                              NUMBER OF TIME STEPS =    30

                               MULTIPLIER FOR DELT =     1.000

                            INITIAL TIME STEP SIZE =   87666.66    

 REUSING NON-PARAMETER GHB CELLS FROM LAST STRESS PERIOD

      2 GHB CELLS

 REUSING STREAM SEGMENT DATA FROM LAST STRESS PERIOD



            AREAL INFILTRATION RATE
 READING ON UNIT   19 WITH FORMAT: (FREE)              

            1           2           3           4           5           6           7           8           9          10
 ........................................................................................................................
   1   1.0000E-10  2.0000E-10   0.000       0.000       0.000       0.000       0.000       0.000       0.000       0.000    
   2   2.0000E-10  1.0000E-10  2.0000E-10   0.000       0.000      8.0000E-10  8.0000E-10  5.0000E-10   0.000       0.000    
   3    0.000      5.0000E-10  1.0000E-10  1.0000E-10  8.0000E-10  8.0000E-10  5.0000E-10  5.0000E-10   0.000       0.000    
   4   8.0000E-10  5.0000E-10  1.0000E-10  1.0000E-10  1.0000E-10  1.0000E-10  1.0000E-10  1.0000E-10  2.0000E-10   0.000    
   5   8.0000E-10  5.0000E-10  1.0000E-10  1.0000E-10  1.0000E-10  1.0000E-10  1.0000E-10  1.0000E-10  1.0000E-10  1.0000E-10
   6   8.0000E-10  5.0000E-10  5.0000E-10  2.0000E-10  2.0000E-10  1.0000E-10  1.0000E-10  1.0000E-10  1.0000E-10  5.0000E-10
   7   8.0000E-10  5.0000E-10  5.0000E-10  2.0000E-10  2.0000E-10  1.0000E-10  1.0000E-10  2.0000E-10  2.0000E-10   0.000    
   8    0.000      5.0000E-10  5.0000E-10  2.0000E-10  2.0000E-10  1.0000E-10  1.0000E-10  2.0000E-10  5.0000E-10   0.000    
   9    0.000      5.0000E-10  5.0000E-10  2.0000E-10  2.0000E-10  1.0000E-10  1.0000E-10  2.0000E-10  5.0000E-10   0.000    
  10    0.000      5.0000E-10  5.0000E-10  2.0000E-10  2.0000E-10  1.0000E-10  1.0000E-10  2.0000E-10  5.0000E-10  8.0000E-10
  11    0.000      1.0000E-10  1.0000E-10  1.0000E-10  1.0000E-10  1.0000E-10  1.0000E-10  2.0000E-10  5.0000E-10   0.000    
  12   1.0000E-10  1.0000E-10  1.0000E-10  1.0000E-10  1.0000E-10  1.0000E-10  1.0000E-10  1.0000E-10  2.0000E-10   0.000    
  13   1.0000E-10  1.0000E-10  2.0000E-10  2.0000E-10  2.0000E-10  2.0000E-10  2.0000E-10  1.0000E-10  1.0000E-10   0.000    
  14    0.000      2.0000E-10  5.0000E-10  5.0000E-10  5.0000E-10  5.0000E-10  5.0000E-10  2.0000E-10  1.0000E-10   0.000    
  15    0.000       0.000      8.0000E-10  8.0000E-10  8.0000E-10  8.0000E-10   0.000       0.000       0.000       0.000    

                  ET RATE =  7.500000E-08

 USING ET EXTINCTION DEPTH FROM PREVIOUS STRESS PERIOD. CURRENT PERIOD IS:      34

 USING EXTINCTION WATER CONTENT FROM PREVIOUS STRESS PERIOD. CURRENT PERIOD IS:      34

 USING AIR ENTRY PRESSURE FROM PREVIOUS STRESS PERIOD. CURRENT PERIOD IS:      34

 USING ROOT PRESSURE HEAD FROM PREVIOUS STRESS PERIOD. CURRENT PERIOD IS:      34

 USING ROOT ACTIVITY FROM PREVIOUS STRESS PERIOD. CURRENT PERIOD IS:      34

 PROCESSING AG STRESS PERIOD DATA

 READING AG STRESS PERIOD DATA

 READING IRRIGATION WELL

 NO IRRPOND OR REUSING IRRPOND DATA FROM LAST STRESS PERIOD

 END PROCESSING AG STRESS PERIOD DATA OPTIONS
 
 SOLVING FOR HEAD 
                                                   Max.-Head-Change                         Max.-Flux-Residual
  Residual-Control   Outer-Iter.   Inner-Iter.     Column Row Layer    Maximum-Head-Change  Column Row Layer    Maximum-Flux-Residual          L2-NORM 
          0                 1           2             5    8     1       0.7563096209E-01       5    8    1         0.4111630701E+01      0.1088611799E+02
          0                 2           2             5    8     1      -0.7356706564E-02       5    8    1        -0.4111544748E+00      0.1088586964E+01
          0                 3           2             5    8     1       0.5009656749E-03       5    8    1         0.2878090813E-01      0.7620135181E-01
          0                 4           1             5    8     1      -0.1993388798E-04       5    8    1        -0.1177140401E-02      0.3116638129E-02

    ------------------------------------------------
       NWT REQUIRED            4 OUTER ITERATIONS 
       AND A TOTAL OF          7 INNER ITERATIONS.
    ------------------------------------------------

 NO OUTPUT CONTROL FOR STRESS PERIOD   34   TIME STEP    1
 
 SOLVING FOR HEAD 
                                                   Max.-Head-Change                         Max.-Flux-Residual
  Residual-Control   Outer-Iter.   Inner-Iter.     Column Row Layer    Maximum-Head-Change  Column Row Layer    Maximum-Flux-Residual          L2-NORM 
          0                 1           2             5    8     1       0.1073626529E+00       5    8    1         0.5805161756E+01      0.1464753223E+02
          0                 2           2             5    7     1      -0.4449316967E-01       5    8    1        -0.2443909749E+01      0.5944340077E+01
          0                 3           2             5    7     1       0.3029559705E-02       5    8    1         0.1710594237E+00      0.4160688255E+00
          0                 4           2             5    7     1      -0.1205490413E-03       5    8    1        -0.6996340872E-02      0.1701724131E-01
          0                 5           1             5    7     1       0.1486423318E-05       5    8    1         0.8866520511E-04      0.2156614506E-03

    ------------------------------------------------
       NWT REQUIRED            5 OUTER ITERATIONS 
       AND A TOTAL OF          9 INNER ITERATIONS.
    ------------------------------------------------

 NO OUTPUT CONTROL FOR STRESS PERIOD   34   TIME STEP    2
 
 SOLVING FOR HEAD 
                                                   Max.-Head-Change                         Max.-Flux-Residual
  Residual-Control   Outer-Iter.   Inner-Iter.     Column Row Layer    Maximum-Head-Change  Column Row Layer    Maximum-Flux-Residual          L2-NORM 
          0                 1           2             5    8     1       0.1042752957E+00       5    8    1         0.5634423955E+01      0.1434070211E+02
          0                 2           2             5    7     1      -0.4447045993E-01       5    8    1        -0.2433419310E+01      0.5933834917E+01
          0                 3           2             5    7     1       0.3028010625E-02       5    8    1         0.1703249719E+00      0.4153331097E+00
          0                 4           2             5    7     1      -0.1204874040E-03       5    8    1        -0.6966301753E-02      0.1698715060E-01
          0                 5           1             5    7     1       0.1485663185E-05       5    8    1         0.8828451882E-04      0.2152800660E-03

    ------------------------------------------------
       NWT REQUIRED            5 OUTER ITERATIONS 
       AND A TOTAL OF          9 INNER ITERATIONS.
    ------------------------------------------------

 NO OUTPUT CONTROL FOR STRESS PERIOD   34   TIME STEP    3
 
 SOLVING FOR HEAD 
                                                   Max.-Head-Change                         Max.-Flux-Residual
  Residual-Control   Outer-Iter.   Inner-Iter.     Column Row Layer    Maximum-Head-Change  Column Row Layer    Maximum-Flux-Residual          L2-NORM 
          0                 1           2             5    8     1       0.1013755895E+00       5    8    1         0.5474182813E+01      0.1404963629E+02
          0                 2           2             5    7     1      -0.4432868999E-01       5    8    1        -0.2417395649E+01      0.5908464520E+01
          0                 3           2             5    7     1       0.3018356217E-02       5    8    1         0.1692033150E+00      0.4135571286E+00
          0                 4           2             5    7     1      -0.1201032482E-03       5    8    1        -0.6920425901E-02      0.1691452977E-01
          0                 5           1             5    7     1       0.1480926526E-05       5    8    1         0.8770313661E-04      0.2143608362E-03

    ------------------------------------------------
       NWT REQUIRED            5 OUTER ITERATIONS 
       AND A TOTAL OF          9 INNER ITERATIONS.
    ------------------------------------------------

 NO OUTPUT CONTROL FOR STRESS PERIOD   34   TIME STEP    4
 
 SOLVING FOR HEAD 
                                                   Max.-Head-Change                         Max.-Flux-Residual
  Residual-Control   Outer-Iter.   Inner-Iter.     Column Row Layer    Maximum-Head-Change  Column Row Layer    Maximum-Flux-Residual          L2-NORM 
          0                 1           2             5    7     1       0.9970199382E-01       5    8    1         0.5323500239E+01      0.1377285543E+02
          0                 2           2             4    7     1      -0.4427466379E-01       5    8    1        -0.2402327818E+01      0.5884177082E+01
          0                 3           2             4    7     1       0.3014673091E-02       5    8    1         0.1681485656E+00      0.4118569598E+00
          0                 4           2             4    7     1      -0.1199567002E-03       5    8    1        -0.6877286592E-02      0.1684497655E-01
          0                 5           1             4    7     1       0.1479118270E-05       5    8    1         0.8715641980E-04      0.2134829926E-03

    ------------------------------------------------
       NWT REQUIRED            5 OUTER ITERATIONS 
       AND A TOTAL OF          9 INNER ITERATIONS.
    ------------------------------------------------

 NO OUTPUT CONTROL FOR STRESS PERIOD   34   TIME STEP    5
 
 SOLVING FOR HEAD 
                                                   Max.-Head-Change                         Max.-Flux-Residual
  Residual-Control   Outer-Iter.   Inner-Iter.     Column Row Layer    Maximum-Head-Change  Column Row Layer    Maximum-Flux-Residual          L2-NORM 
          0                 1           2             5    7     1       0.9829373740E-01       5    7    1         0.5208745430E+01      0.1350935532E+02
          0                 2           2             4    7     1      -0.4423842166E-01       5    7    1        -0.2390857804E+01      0.5860906486E+01
          0                 3           2             4    7     1       0.3012204649E-02       5    7    1         0.1673453436E+00      0.4102279729E+00
          0                 4           2             4    7     1      -0.1198584811E-03       5    7    1        -0.6844436268E-02      0.1677835062E-01
          0                 5           1             4    7     1       0.1477907054E-05       5    7    1         0.8674011224E-04      0.2126342381E-03

    ------------------------------------------------
       NWT REQUIRED            5 OUTER ITERATIONS 
       AND A TOTAL OF          9 INNER ITERATIONS.
    ------------------------------------------------

 NO OUTPUT CONTROL FOR STRESS PERIOD   34   TIME STEP    6
 
 SOLVING FOR HEAD 
                                                   Max.-Head-Change                         Max.-Flux-Residual
  Residual-Control   Outer-Iter.   Inner-Iter.     Column Row Layer    Maximum-Head-Change  Column Row Layer    Maximum-Flux-Residual          L2-NORM 
          0                 1           2             5    7     1       0.9691188832E-01       5    7    1         0.5135549859E+01      0.1325821194E+02
          0                 2           2             4    7     1      -0.4419825046E-01       5    7    1        -0.2383538848E+01      0.5838591734E+01
          0                 3           2             4    7     1       0.3009468691E-02       5    7    1         0.1668329975E+00      0.4086658994E+00
          0                 4           2             4    7     1      -0.1197496166E-03       5    7    1        -0.6823481383E-02      0.1671446581E-01
          0                 5           1             4    7     1       0.1476564668E-05       5    7    1         0.8647453842E-04      0.2120782846E-03

    ------------------------------------------------
       NWT REQUIRED            5 OUTER ITERATIONS 
       AND A TOTAL OF          9 INNER ITERATIONS.
    ------------------------------------------------

 NO OUTPUT CONTROL FOR STRESS PERIOD   34   TIME STEP    7
 
 SOLVING FOR HEAD 
                                                   Max.-Head-Change                         Max.-Flux-Residual
  Residual-Control   Outer-Iter.   Inner-Iter.     Column Row Layer    Maximum-Head-Change  Column Row Layer    Maximum-Flux-Residual          L2-NORM 
          0                 1           2             4    7     1       0.9567709462E-01       5    7    1         0.5063747929E+01      0.1301859783E+02
          0                 2           2             4    7     1      -0.4415449896E-01       5    7    1        -0.2376359183E+01      0.5817178148E+01
          0                 3           2             4    7     1       0.3006488963E-02       5    7    1         0.1663304037E+00      0.4071669094E+00
          0                 4           2             4    7     1      -0.1196310528E-03       5    7    1        -0.6802925348E-02      0.1665315374E-01
          0                 5           1             4    7     1       0.1475103211E-05       5    7    1         0.8621403640E-04      0.2110474447E-03

    ------------------------------------------------
       NWT REQUIRED            5 OUTER ITERATIONS 
       AND A TOTAL OF          9 INNER ITERATIONS.
    ------------------------------------------------

 NO OUTPUT CONTROL FOR STRESS PERIOD   34   TIME STEP    8
 
 SOLVING FOR HEAD 
                                                   Max.-Head-Change                         Max.-Flux-Residual
  Residual-Control   Outer-Iter.   Inner-Iter.     Column Row Layer    Maximum-Head-Change  Column Row Layer    Maximum-Flux-Residual          L2-NORM 
          0                 1           2             4    7     1       0.9519384281E-01       5    7    1         0.4993363396E+01      0.1278973026E+02
          0                 2           2             4    7     1      -0.4410749516E-01       5    7    1        -0.2369321194E+01      0.5796613222E+01
          0                 3           2             4    7     1       0.3003287800E-02       5    7    1         0.1658377290E+00      0.4057273296E+00
          0                 4           2             4    7     1      -0.1195036771E-03       5    7    1        -0.6782775001E-02      0.1659427479E-01
          0                 5           1             4    7     1       0.1473532090E-05       5    7    1         0.8595866666E-04      0.2103025982E-03

    ------------------------------------------------
       NWT REQUIRED            5 OUTER ITERATIONS 
       AND A TOTAL OF          9 INNER ITERATIONS.
    ------------------------------------------------

 NO OUTPUT CONTROL FOR STRESS PERIOD   34   TIME STEP    9
 
 SOLVING FOR HEAD 
                                                   Max.-Head-Change                         Max.-Flux-Residual
  Residual-Control   Outer-Iter.   Inner-Iter.     Column Row Layer    Maximum-Head-Change  Column Row Layer    Maximum-Flux-Residual          L2-NORM 
          0                 1           2             4    7     1       0.9468010440E-01       4    7    1         0.4954603962E+01      0.1257090262E+02
          0                 2           2             4    7     1      -0.4405752212E-01       4    7    1        -0.2365447801E+01      0.5776849043E+01
          0                 3           2             4    7     1       0.2999884474E-02       4    7    1         0.1655664601E+00      0.4043438039E+00
          0                 4           2             4    7     1      -0.1193682576E-03       4    7    1        -0.6771680686E-02      0.1653768842E-01
          0                 5           1             4    7     1       0.1471862509E-05       4    7    1         0.8581807151E-04      0.2095847542E-03

    ------------------------------------------------
       NWT REQUIRED            5 OUTER ITERATIONS 
       AND A TOTAL OF          9 INNER ITERATIONS.
    ------------------------------------------------

 NO OUTPUT CONTROL FOR STRESS PERIOD   34   TIME STEP   10
 
 SOLVING FOR HEAD 
                                                   Max.-Head-Change                         Max.-Flux-Residual
  Residual-Control   Outer-Iter.   Inner-Iter.     Column Row Layer    Maximum-Head-Change  Column Row Layer    Maximum-Flux-Residual          L2-NORM 
          0                 1           2             4    7     1       0.9413887208E-01       4    7    1         0.4927910119E+01      0.1236147304E+02
          0                 2           2             4    7     1      -0.4400487125E-01       4    7    1        -0.2362778888E+01      0.5757841954E+01
          0                 3           2             4    7     1       0.2996298828E-02       4    7    1         0.1653796155E+00      0.4030132776E+00
          0                 4           2             4    7     1      -0.1192255825E-03       4    7    1        -0.6764038822E-02      0.1648327000E-01
          0                 5           1             4    7     1       0.1470102868E-05       4    7    1         0.8572120259E-04      0.2088942500E-03

    ------------------------------------------------
       NWT REQUIRED            5 OUTER ITERATIONS 
       AND A TOTAL OF          9 INNER ITERATIONS.
    ------------------------------------------------

 NO OUTPUT CONTROL FOR STRESS PERIOD   34   TIME STEP   11
 
 SOLVING FOR HEAD 
                                                   Max.-Head-Change                         Max.-Flux-Residual
  Residual-Control   Outer-Iter.   Inner-Iter.     Column Row Layer    Maximum-Head-Change  Column Row Layer    Maximum-Flux-Residual          L2-NORM 
          0                 1           2             4    7     1       0.9357309362E-01       4    7    1         0.4899798109E+01      0.1216084674E+02
          0                 2           2             4    7     1      -0.4394982956E-01       4    7    1        -0.2359968110E+01      0.5739551497E+01
          0                 3           2             4    7     1       0.2992550403E-02       4    7    1         0.1651828421E+00      0.4017329170E+00
          0                 4           2             4    7     1      -0.1190764308E-03       4    7    1        -0.6755990862E-02      0.1643090318E-01
          0                 5           1             4    7     1       0.1468264257E-05       4    7    1         0.8561923505E-04      0.2082308279E-03

    ------------------------------------------------
       NWT REQUIRED            5 OUTER ITERATIONS 
       AND A TOTAL OF          9 INNER ITERATIONS.
    ------------------------------------------------

 NO OUTPUT CONTROL FOR STRESS PERIOD   34   TIME STEP   12
 
 SOLVING FOR HEAD 
                                                   Max.-Head-Change                         Max.-Flux-Residual
  Residual-Control   Outer-Iter.   Inner-Iter.     Column Row Layer    Maximum-Head-Change  Column Row Layer    Maximum-Flux-Residual          L2-NORM 
          0                 1           2             4    7     1       0.9298512820E-01       4    7    1         0.4870399122E+01      0.1196846015E+02
          0                 2           2             4    7     1      -0.4389262678E-01       4    7    1        -0.2357028589E+01      0.5721936158E+01
          0                 3           2             4    7     1       0.2988654843E-02       4    7    1         0.1649770584E+00      0.4004998171E+00
          0                 4           2             4    7     1      -0.1189214242E-03       4    7    1        -0.6747574399E-02      0.1638046991E-01
          0                 5           1             4    7     1       0.1466352724E-05       4    7    1         0.8551255860E-04      0.2076080085E-03

    ------------------------------------------------
       NWT REQUIRED            5 OUTER ITERATIONS 
       AND A TOTAL OF          9 INNER ITERATIONS.
    ------------------------------------------------

 NO OUTPUT CONTROL FOR STRESS PERIOD   34   TIME STEP   13
 
 SOLVING FOR HEAD 
                                                   Max.-Head-Change                         Max.-Flux-Residual
  Residual-Control   Outer-Iter.   Inner-Iter.     Column Row Layer    Maximum-Head-Change  Column Row Layer    Maximum-Flux-Residual          L2-NORM 
          0                 1           2             5    8     1       0.1114773664E+00       5    8    1         0.6034143632E+01      0.1252063858E+02
          0                 2           2             4    7     1      -0.4382992559E-01       4    7    1        -0.2353974577E+01      0.5524719179E+01
          0                 3           2             4    7     1       0.2984383692E-02       4    7    1         0.1647632412E+00      0.3866638418E+00
          0                 4           2             4    7     1      -0.1187514304E-03       4    7    1        -0.6738829413E-02      0.1581248171E-01
          0                 5           1             4    7     1       0.1464255022E-05       4    7    1         0.8540173349E-04      0.2003114640E-03

    ------------------------------------------------
       NWT REQUIRED            5 OUTER ITERATIONS 
       AND A TOTAL OF          9 INNER ITERATIONS.
    ------------------------------------------------

 NO OUTPUT CONTROL FOR STRESS PERIOD   34   TIME STEP   14
 
 SOLVING FOR HEAD 
                                                   Max.-Head-Change                         Max.-Flux-Residual
  Residual-Control   Outer-Iter.   Inner-Iter.     Column Row Layer    Maximum-Head-Change  Column Row Layer    Maximum-Flux-Residual          L2-NORM 
          0                 1           2             5    8     1       0.1195923744E+00       5    8    1         0.6480487257E+01      0.1262771853E+02
          0                 2           2             5    8     1      -0.4559228234E-01       5    8    1        -0.2517707470E+01      0.5786046701E+01
          0                 3           2             5    8     1       0.3102168679E-02       5    8    1         0.1760943231E+00      0.4049309093E+00
          0                 4           2             5    8     1      -0.1232906845E-03       5    8    1        -0.7193426993E-02      0.1655785711E-01
          0                 5           1             5    8     1       0.1514520671E-05       5    8    1         0.9081133840E-04      0.2096871819E-03

    ------------------------------------------------
       NWT REQUIRED            5 OUTER ITERATIONS 
       AND A TOTAL OF          9 INNER ITERATIONS.
    ------------------------------------------------

 NO OUTPUT CONTROL FOR STRESS PERIOD   34   TIME STEP   15
 
 SOLVING FOR HEAD 
                                                   Max.-Head-Change                         Max.-Flux-Residual
  Residual-Control   Outer-Iter.   Inner-Iter.     Column Row Layer    Maximum-Head-Change  Column Row Layer    Maximum-Flux-Residual          L2-NORM 
          0                 1           2             5    8     1       0.1158009982E+00       5    8    1         0.6270103313E+01      0.1240993173E+02
          0                 2           2             5    8     1      -0.4522360558E-01       5    8    1        -0.2496678486E+01      0.5767040452E+01
          0                 3           2             5    8     1       0.3077081889E-02       5    8    1         0.1746233919E+00      0.4036011911E+00
          0                 4           2             5    8     1      -0.1222936489E-03       5    8    1        -0.7133337142E-02      0.1650352229E-01
          0                 5           1             5    8     1       0.1502273081E-05       5    8    1         0.9005265929E-04      0.2091322580E-03

    ------------------------------------------------
       NWT REQUIRED            5 OUTER ITERATIONS 
       AND A TOTAL OF          9 INNER ITERATIONS.
    ------------------------------------------------

 NO OUTPUT CONTROL FOR STRESS PERIOD   34   TIME STEP   16
 
 SOLVING FOR HEAD 
                                                   Max.-Head-Change                         Max.-Flux-Residual
  Residual-Control   Outer-Iter.   Inner-Iter.     Column Row Layer    Maximum-Head-Change  Column Row Layer    Maximum-Flux-Residual          L2-NORM 
          0                 1           2             5    8     1       0.1122480413E+00       5    8    1         0.6073093856E+01      0.1220315407E+02
          0                 2           2             5    8     1      -0.4487811486E-01       5    8    1        -0.2476986427E+01      0.5748819218E+01
          0                 3           2             5    8     1       0.3053572787E-02       5    8    1         0.1732459752E+00      0.4023263717E+00
          0                 4           2             5    8     1      -0.1213593161E-03       5    8    1        -0.7077067556E-02      0.1645142920E-01
          0                 5           1             5    8     1       0.1490795817E-05       5    8    1         0.8934222524E-04      0.2083991123E-03

    ------------------------------------------------
       NWT REQUIRED            5 OUTER ITERATIONS 
       AND A TOTAL OF          9 INNER ITERATIONS.
    ------------------------------------------------

 NO OUTPUT CONTROL FOR STRESS PERIOD   34   TIME STEP   17
 
 SOLVING FOR HEAD 
                                                   Max.-Head-Change                         Max.-Flux-Residual
  Residual-Control   Outer-Iter.   Inner-Iter.     Column Row Layer    Maximum-Head-Change  Column Row Layer    Maximum-Flux-Residual          L2-NORM 
          0                 1           2             5    8     1       0.1089159729E+00       5    8    1         0.5888469005E+01      0.1200647979E+02
          0                 2           2             5    8     1      -0.4455410521E-01       5    8    1        -0.2458532336E+01      0.5731332071E+01
          0                 3           2             5    8     1       0.3031525360E-02       5    8    1         0.1719551513E+00      0.4011028907E+00
          0                 4           2             5    8     1      -0.1204830752E-03       5    8    1        -0.7024335473E-02      0.1640143231E-01
          0                 5           1             5    8     1       0.1480031751E-05       5    8    1         0.8867643328E-04      0.2077175568E-03

    ------------------------------------------------
       NWT REQUIRED            5 OUTER ITERATIONS 
       AND A TOTAL OF          9 INNER ITERATIONS.
    ------------------------------------------------

 NO OUTPUT CONTROL FOR STRESS PERIOD   34   TIME STEP   18
 
 SOLVING FOR HEAD 
                                                   Max.-Head-Change                         Max.-Flux-Residual
  Residual-Control   Outer-Iter.   Inner-Iter.     Column Row Layer    Maximum-Head-Change  Column Row Layer    Maximum-Flux-Residual          L2-NORM 
          0                 1           2             5    8     1       0.1057886992E+00       5    8    1         0.5715319866E+01      0.1181910828E+02
          0                 2           2             5    8     1      -0.4425001138E-01       5    8    1        -0.2441225353E+01      0.5714533278E+01
          0                 3           2             5    8     1       0.3010833102E-02       5    8    1         0.1707431360E+00      0.3999264684E+00
          0                 4           2             5    8     1      -0.1196606937E-03       5    8    1        -0.6974685251E-02      0.1635325629E-01
          0                 5           1             5    8     1       0.1469929581E-05       5    8    1         0.8804027630E-04      0.2070953357E-03

    ------------------------------------------------
       NWT REQUIRED            5 OUTER ITERATIONS 
       AND A TOTAL OF          9 INNER ITERATIONS.
    ------------------------------------------------

 NO OUTPUT CONTROL FOR STRESS PERIOD   34   TIME STEP   19
 
 SOLVING FOR HEAD 
                                                   Max.-Head-Change                         Max.-Flux-Residual
  Residual-Control   Outer-Iter.   Inner-Iter.     Column Row Layer    Maximum-Head-Change  Column Row Layer    Maximum-Flux-Residual          L2-NORM 
          0                 1           2             5    8     1       0.1028515701E+00       5    8    1         0.5552819803E+01      0.1164032572E+02
          0                 2           2             5    8     1      -0.4396440860E-01       5    8    1        -0.2424982843E+01      0.5698381676E+01
          0                 3           2             5    8     1       0.2991399067E-02       5    8    1         0.1696048104E+00      0.3987949565E+00
          0                 4           2             5    8     1      -0.1188883185E-03       5    8    1        -0.6927969892E-02      0.1630689406E-01
          0                 5           1             5    8     1       0.1460441813E-05       5    8    1         0.8743598937E-04      0.2065073189E-03

    ------------------------------------------------
       NWT REQUIRED            5 OUTER ITERATIONS 
       AND A TOTAL OF          9 INNER ITERATIONS.
    ------------------------------------------------

 NO OUTPUT CONTROL FOR STRESS PERIOD   34   TIME STEP   20
 
 SOLVING FOR HEAD 
                                                   Max.-Head-Change                         Max.-Flux-Residual
  Residual-Control   Outer-Iter.   Inner-Iter.     Column Row Layer    Maximum-Head-Change  Column Row Layer    Maximum-Flux-Residual          L2-NORM 
          0                 1           2             5    8     1       0.1000908496E+00       5    8    1         0.5400193725E+01      0.1146948262E+02
          0                 2           2             4    7     1      -0.4341967803E-01       4    7    1        -0.2332264382E+01      0.5335456993E+01
          0                 3           2             5    8     1      -0.6959336540E-02       5    8    1        -0.3996145794E+00      0.5380132597E+00
          0                 4           2             5    8     1      -0.1861452949E-02       5    8    1        -0.1053858314E+00      0.1064320743E+00
          0                 5           1             5    8     1      -0.4978797580E-03       5    8    1        -0.2824134973E-01      0.2824178314E-01
          0                 6           1             5    8     1      -0.1331636427E-03       5    8    1        -0.7552733360E-02      0.7552824094E-02
          0                 7           1             5    8     1      -0.3561522707E-04       5    8    1        -0.2020001939E-02      0.2020024285E-02

    ------------------------------------------------
       NWT REQUIRED            7 OUTER ITERATIONS 
       AND A TOTAL OF         11 INNER ITERATIONS.
    ------------------------------------------------

 NO OUTPUT CONTROL FOR STRESS PERIOD   34   TIME STEP   21
 
 SOLVING FOR HEAD 
                                                   Max.-Head-Change                         Max.-Flux-Residual
  Residual-Control   Outer-Iter.   Inner-Iter.     Column Row Layer    Maximum-Head-Change  Column Row Layer    Maximum-Flux-Residual          L2-NORM 
          0                 1           2             5    8     1       0.9715691459E-01       5    8    1         0.5237865980E+01      0.1130056982E+02
          0                 2           2             4    7     1      -0.4335463173E-01       4    7    1        -0.2329124818E+01      0.5164882153E+01
          0                 3           2             4    7     1       0.2950572959E-02       5    8    1        -0.1661023409E+00      0.3960837922E+00
          0                 4           2             5    8     1      -0.7603785968E-03       5    8    1        -0.4293197851E-01      0.4540115549E-01
          0                 5           1             5    8     1      -0.2033750823E-03       5    8    1        -0.1153763108E-01      0.1153876150E-01
          0                 6           1             5    8     1      -0.5439443257E-04       5    8    1        -0.3085134415E-02      0.3085176066E-02

    ------------------------------------------------
       NWT REQUIRED            6 OUTER ITERATIONS 
       AND A TOTAL OF         10 INNER ITERATIONS.
    ------------------------------------------------

 NO OUTPUT CONTROL FOR STRESS PERIOD   34   TIME STEP   22
 
 SOLVING FOR HEAD 
                                                   Max.-Head-Change                         Max.-Flux-Residual
  Residual-Control   Outer-Iter.   Inner-Iter.     Column Row Layer    Maximum-Head-Change  Column Row Layer    Maximum-Flux-Residual          L2-NORM 
          0                 1           2             5    8     1       0.9308809990E-01       5    8    1         0.5012010606E+01      0.1111911405E+02
          0                 2           2             4    7     1      -0.4330749746E-01       4    7    1        -0.2326035494E+01      0.5460875864E+01
          0                 3           2             4    7     1       0.2948807798E-02       4    7    1         0.1628074753E+00      0.3821890302E+00
          0                 4           2             4    7     1      -0.1173358327E-03       4    7    1        -0.6658838606E-02      0.1562907498E-01
          0                 5           1             4    7     1       0.1446799750E-05       4    7    1         0.8438800569E-04      0.1979974111E-03

    ------------------------------------------------
       NWT REQUIRED            5 OUTER ITERATIONS 
       AND A TOTAL OF          9 INNER ITERATIONS.
    ------------------------------------------------

 NO OUTPUT CONTROL FOR STRESS PERIOD   34   TIME STEP   23
 
 SOLVING FOR HEAD 
                                                   Max.-Head-Change                         Max.-Flux-Residual
  Residual-Control   Outer-Iter.   Inner-Iter.     Column Row Layer    Maximum-Head-Change  Column Row Layer    Maximum-Flux-Residual          L2-NORM 
          0                 1           2             4    8     1       0.1256354061E+00       4    8    1         0.6696134552E+01      0.1210601145E+02
          0                 2           2             4    8     1      -0.4666653657E-01       4    8    1        -0.2539258044E+01      0.5738409685E+01
          0                 3           2             4    8     1       0.3175191232E-02       4    8    1         0.1775995795E+00      0.4015365792E+00
          0                 4           2             4    8     1      -0.1261882057E-03       4    8    1        -0.7254784899E-02      0.1641503150E-01
          0                 5           1             4    8     1       0.1549932369E-05       4    8    1         0.9158066723E-04      0.2077840573E-03

    ------------------------------------------------
       NWT REQUIRED            5 OUTER ITERATIONS 
       AND A TOTAL OF          9 INNER ITERATIONS.
    ------------------------------------------------

 NO OUTPUT CONTROL FOR STRESS PERIOD   34   TIME STEP   24
 
 SOLVING FOR HEAD 
                                                   Max.-Head-Change                         Max.-Flux-Residual
  Residual-Control   Outer-Iter.   Inner-Iter.     Column Row Layer    Maximum-Head-Change  Column Row Layer    Maximum-Flux-Residual          L2-NORM 
          0                 1           2             5    7     1       0.1248936667E+00       5    7    1         0.6698681407E+01      0.1299815372E+02
          0                 2           2             5    7     1      -0.4663390520E-01       5    7    1        -0.2539524171E+01      0.5823883120E+01
          0                 3           2             5    7     1       0.3173002378E-02       5    7    1         0.1776177571E+00      0.4074634081E+00
          0                 4           2             5    7     1      -0.1261038679E-03       5    7    1        -0.7255537118E-02      0.1665366519E-01
          0                 5           1             5    7     1       0.1549001078E-05       5    7    1         0.9159043384E-04      0.2107291690E-03

    ------------------------------------------------
       NWT REQUIRED            5 OUTER ITERATIONS 
       AND A TOTAL OF          9 INNER ITERATIONS.
    ------------------------------------------------

 NO OUTPUT CONTROL FOR STRESS PERIOD   34   TIME STEP   25
 
 SOLVING FOR HEAD 
                                                   Max.-Head-Change                         Max.-Flux-Residual
  Residual-Control   Outer-Iter.   Inner-Iter.     Column Row Layer    Maximum-Head-Change  Column Row Layer    Maximum-Flux-Residual          L2-NORM 
          0                 1           2             5    7     1       0.1217540509E+00       5    7    1         0.6524799675E+01      0.1280730897E+02
          0                 2           2             5    7     1      -0.4632851132E-01       5    7    1        -0.2522143079E+01      0.5807686646E+01
          0                 3           2             5    7     1       0.3152222270E-02       5    7    1         0.1764007601E+00      0.4063344407E+00
          0                 4           2             5    7     1      -0.1252779961E-03       5    7    1        -0.7205698899E-02      0.1660765826E-01
          0                 5           1             5    7     1       0.1538856454E-05       5    7    1         0.9095297719E-04      0.2100245489E-03

    ------------------------------------------------
       NWT REQUIRED            5 OUTER ITERATIONS 
       AND A TOTAL OF          9 INNER ITERATIONS.
    ------------------------------------------------

 NO OUTPUT CONTROL FOR STRESS PERIOD   34   TIME STEP   26
 
 SOLVING FOR HEAD 
                                                   Max.-Head-Change                         Max.-Flux-Residual
  Residual-Control   Outer-Iter.   Inner-Iter.     Column Row Layer    Maximum-Head-Change  Column Row Layer    Maximum-Flux-Residual          L2-NORM 
          0                 1           2             5    7     1       0.1193542226E+00       5    7    1         0.6354778874E+01      0.1350171064E+02
          0                 2           2             5    7     1      -0.4609494270E-01       5    7    1        -0.2505141320E+01      0.5888129291E+01
          0                 3           2             5    7     1       0.3136300182E-02       5    7    1         0.1752090507E+00      0.4119119146E+00
          0                 4           2             5    7     1      -0.1246429295E-03       5    7    1        -0.7156745758E-02      0.1683210374E-01
          0                 5           1             5    7     1       0.1530968706E-05       5    7    1         0.9031703348E-04      0.2127346385E-03

    ------------------------------------------------
       NWT REQUIRED            5 OUTER ITERATIONS 
       AND A TOTAL OF          9 INNER ITERATIONS.
    ------------------------------------------------

 NO OUTPUT CONTROL FOR STRESS PERIOD   34   TIME STEP   27
 
 SOLVING FOR HEAD 
                                                   Max.-Head-Change                         Max.-Flux-Residual
  Residual-Control   Outer-Iter.   Inner-Iter.     Column Row Layer    Maximum-Head-Change  Column Row Layer    Maximum-Flux-Residual          L2-NORM 
          0                 1           2             5    7     1       0.1170621851E+00       5    7    1         0.6230079201E+01      0.1329886182E+02
          0                 2           2             5    7     1      -0.4586404097E-01       5    7    1        -0.2492677005E+01      0.5495607636E+01
          0                 3           2             4    8     1      -0.7122328451E-02       4    8    1        -0.4017217628E+00      0.5474862841E+00
          0                 4           2             4    8     1      -0.1946028659E-02       4    8    1        -0.1083516413E+00      0.1094322151E+00
          0                 5           2             4    8     1      -0.5316992798E-03       4    8    1        -0.2965499613E-01      0.2965540650E-01
          0                 6           2             4    8     1      -0.1452686783E-03       4    8    1        -0.8101504834E-02      0.8101578004E-02
          0                 7           1             4    8     1      -0.3968871957E-04       4    8    1        -0.2213391366E-02      0.2213409628E-02

    ------------------------------------------------
       NWT REQUIRED            7 OUTER ITERATIONS 
       AND A TOTAL OF         13 INNER ITERATIONS.
    ------------------------------------------------

 NO OUTPUT CONTROL FOR STRESS PERIOD   34   TIME STEP   28
 
 SOLVING FOR HEAD 
                                                   Max.-Head-Change                         Max.-Flux-Residual
  Residual-Control   Outer-Iter.   Inner-Iter.     Column Row Layer    Maximum-Head-Change  Column Row Layer    Maximum-Flux-Residual          L2-NORM 
          0                 1           2             5    7     1       0.1148759943E+00       5    7    1         0.6111120585E+01      0.1309918227E+02
          0                 2           2             5    7     1      -0.4564490942E-01       5    7    1        -0.2480786538E+01      0.5325398407E+01
          0                 3           2             5    7     1       0.3105660072E-02       5    7    1         0.1735006925E+00      0.3723463596E+00
          0                 4           2             5    7     1      -0.1234086817E-03       5    7    1        -0.7086496727E-02      0.1520511446E-01
          0                 5           1             5    7     1       0.1515808954E-05       5    7    1         0.8939873896E-04      0.1964601414E-03

    ------------------------------------------------
       NWT REQUIRED            5 OUTER ITERATIONS 
       AND A TOTAL OF          9 INNER ITERATIONS.
    ------------------------------------------------

 NO OUTPUT CONTROL FOR STRESS PERIOD   34   TIME STEP   29
 
 SOLVING FOR HEAD 
                                                   Max.-Head-Change                         Max.-Flux-Residual
  Residual-Control   Outer-Iter.   Inner-Iter.     Column Row Layer    Maximum-Head-Change  Column Row Layer    Maximum-Flux-Residual          L2-NORM 
          0                 1           2             5    7     1       0.1130058506E+00       5    7    1         0.5998126529E+01      0.1316067140E+02
          0                 2           2             4    8     1      -0.4480549471E-01       4    8    1        -0.2454994786E+01      0.5364895191E+01
          0                 3           2             4    8     1       0.3045137344E-02       4    8    1         0.1716958552E+00      0.3502087478E+00
          0                 4           2             4    7     1       0.2097128839E-03       4    7    1         0.1230846499E-01      0.1881741876E-01
          0                 5           1             4    7     1      -0.8336722562E-05       4    7    1        -0.4961492782E-03      0.5298171543E-03

    ------------------------------------------------
       NWT REQUIRED            5 OUTER ITERATIONS 
       AND A TOTAL OF          9 INNER ITERATIONS.
    ------------------------------------------------

 NO OUTPUT CONTROL FOR STRESS PERIOD   34   TIME STEP   30



 STREAM LISTING     PERIOD     34   STEP       30

 LAYER ROW COL. STREAM  RCH.  FLOW INTO     FLOW TO   FLOW OUT OF   OVRLND.     DIRECT     STREAM       STREAM     STREAM     STREAM   STREAMBED  STREAMBED
                SEG.NO.  NO.  STRM. RCH.    AQUIFER    STRM. RCH.    RUNOFF     PRECIP       ET          HEAD       DEPTH      WIDTH   CONDCTNC.   GRADIENT

   1    1    1     1     1    1.9000E+01  2.1427E-01   1.8786E+01  0.000E+00  0.000E+00  0.000E+00  1.09413E+03  1.082E+00  1.166E+01  5.249E-02  1.361E+00
   1    2    2     1     2    1.8786E+01  3.3054E-01   1.8455E+01  0.000E+00  0.000E+00  0.000E+00  1.08914E+03  1.077E+00  1.158E+01  8.107E-02  1.359E+00
   1    3    3     1     3    1.8455E+01  2.8064E-01   1.8175E+01  0.000E+00  0.000E+00  0.000E+00  1.08349E+03  1.072E+00  1.149E+01  6.892E-02  1.357E+00
   1    3    4     1     4    1.8175E+01  2.5740E-01   1.7917E+01  0.000E+00  0.000E+00  0.000E+00  1.07848E+03  1.068E+00  1.140E+01  6.328E-02  1.356E+00
   1    4    5     2     1    1.5917E+01  3.0542E-01   1.5612E+01  0.000E+00  0.000E+00  0.000E+00  1.07285E+03  9.157E-01  1.200E+01  7.800E-02  1.305E+00
   1    5    6     2     2    1.5612E+01  2.3438E-01   1.5377E+01  0.000E+00  0.000E+00  0.000E+00  1.06742E+03  9.063E-01  1.200E+01  6.000E-02  1.302E+00
   1    6    6     2     3    1.5377E+01  2.3388E-01   1.5143E+01  0.000E+00  0.000E+00  0.000E+00  1.06269E+03  8.980E-01  1.200E+01  6.000E-02  1.299E+00
   1    7    6     2     4    1.5143E+01  2.3338E-01   1.4910E+01  0.000E+00  0.000E+00  0.000E+00  1.05797E+03  8.897E-01  1.200E+01  6.000E-02  1.297E+00
   1    8    6     2     5    1.4910E+01  2.3289E-01   1.4677E+01  0.000E+00  0.000E+00  0.000E+00  1.05324E+03  8.814E-01  1.200E+01  6.000E-02  1.294E+00
   1    3    5     3     1    2.0000E+00  2.8252E-01   1.7175E+00  0.000E+00  0.000E+00  0.000E+00  1.07555E+03  1.909E+00  9.636E+00  7.227E-02  1.955E+00
   1    3    6     3     2    1.7175E+00  2.4905E-01   1.4684E+00  0.000E+00  0.000E+00  0.000E+00  1.07264E+03  1.727E+00  8.909E+00  6.682E-02  1.864E+00
   1    3    7     3     3    1.4684E+00  1.9718E-01   1.2712E+00  0.000E+00  0.000E+00  0.000E+00  1.06987E+03  1.555E+00  8.218E+00  5.547E-02  1.777E+00
   1    4    8     3     4    1.2712E+00  2.2567E-01   1.0456E+00  0.000E+00  0.000E+00  0.000E+00  1.06682E+03  1.364E+00  7.455E+00  6.709E-02  1.682E+00
   1    5    8     3     5    1.0456E+00  1.5790E-01   8.8768E-01  0.000E+00  0.000E+00  0.000E+00  1.06362E+03  1.164E+00  6.655E+00  4.991E-02  1.582E+00
   1    6    8     3     6    8.8768E-01  5.5980E-02   8.3170E-01  0.000E+00  0.000E+00  0.000E+00  1.06158E+03  1.036E+00  6.145E+00  1.844E-02  1.518E+00
   1    5   10     4     1    1.0000E+01  9.0919E-02   9.9091E+00  0.000E+00  0.000E+00  0.000E+00  1.07836E+03  6.368E-01  1.000E+01  2.500E-02  1.212E+00
   1    5    9     4     2    9.9091E+00  1.8158E-01   9.7275E+00  0.000E+00  0.000E+00  0.000E+00  1.07154E+03  6.315E-01  1.000E+01  5.000E-02  1.211E+00
   1    6    8     4     3    9.7275E+00  1.2689E-01   9.6006E+00  0.000E+00  0.000E+00  0.000E+00  1.06381E+03  6.256E-01  1.000E+01  3.500E-02  1.209E+00
   1    6    8     5     1    1.0432E+01  2.2686E-01   1.0205E+01  0.000E+00  0.000E+00  0.000E+00  1.05868E+03  6.790E-01  1.542E+01  6.166E-02  1.226E+00
   1    7    7     5     2    1.0205E+01  2.7894E-01   9.9265E+00  0.000E+00  0.000E+00  0.000E+00  1.05417E+03  6.732E-01  1.519E+01  7.594E-02  1.224E+00
   1    8    7     5     3    9.9265E+00  1.9221E-01   9.7343E+00  0.000E+00  0.000E+00  0.000E+00  1.04992E+03  6.676E-01  1.497E+01  5.241E-02  1.223E+00
   1    8    6     5     4    9.7343E+00  1.3577E-01   9.5985E+00  0.000E+00  0.000E+00  0.000E+00  1.04691E+03  6.637E-01  1.482E+01  3.706E-02  1.221E+00
   1    9    6     6     1    2.4276E+01  2.5176E-01   2.4024E+01  0.000E+00  0.000E+00  0.000E+00  1.04392E+03  1.196E+00  1.200E+01  6.000E-02  1.399E+00
   1   10    7     6     2    2.4024E+01  2.5131E-01   2.3773E+01  0.000E+00  0.000E+00  0.000E+00  1.03937E+03  1.188E+00  1.200E+01  6.000E-02  1.396E+00
   1   11    7     6     3    2.3773E+01  2.5086E-01   2.3522E+01  0.000E+00  0.000E+00  0.000E+00  1.03482E+03  1.181E+00  1.200E+01  6.000E-02  1.394E+00
   1   12    7     6     4    2.3522E+01  2.5041E-01   2.3271E+01  0.000E+00  0.000E+00  0.000E+00  1.03026E+03  1.173E+00  1.200E+01  6.000E-02  1.391E+00
   1   13    7     6     5    2.3271E+01  7.1218E-03   2.3264E+01  0.000E+00  0.000E+00  0.000E+00  1.02708E+03  1.170E+00  1.200E+01  2.400E-02  9.891E-02
   1   14    9     7     1    1.5000E+02  1.3537E+00   1.4865E+02  0.000E+00  0.000E+00  0.000E+00  1.03987E+03  2.288E+00  5.529E+01  5.593E-01  8.068E-01
   1   13    8     7     2    1.4865E+02  1.9185E+00   1.4673E+02  0.000E+00  0.000E+00  0.000E+00  1.03478E+03  2.279E+00  5.526E+01  6.148E-01  1.040E+00
   1   13    7     7     3    1.4673E+02  1.6233E+00   1.4510E+02  0.000E+00  0.000E+00  0.000E+00  1.02969E+03  2.270E+00  5.521E+01  5.584E-01  9.690E-01
   1   13    6     8     1    1.6837E+02  1.0624E+00   1.6731E+02  0.000E+00  0.000E+00  0.000E+00  1.02481E+03  2.938E+00  4.260E+01  4.341E-01  8.157E-01
   1   13    5     8     2    1.6731E+02  3.0715E-01   1.6700E+02  0.000E+00  0.000E+00  0.000E+00  1.01856E+03  2.934E+00  4.254E+01  4.335E-01  2.362E-01
   1   13    4     8     3    1.6700E+02 -1.9938E+00   1.6899E+02  0.000E+00  0.000E+00  0.000E+00  1.01231E+03  2.939E+00  4.262E+01  4.343E+00 -1.530E-01
   1   13    3     8     4    1.6899E+02 -3.4351E+00   1.7243E+02  0.000E+00  0.000E+00  0.000E+00  1.00608E+03  2.957E+00  4.287E+01  4.369E+00 -2.621E-01
   1   13    2     8     5    1.7243E+02 -2.5243E+00   1.7495E+02  0.000E+00  0.000E+00  0.000E+00  9.99851E+02  2.976E+00  4.315E+01  4.397E+00 -1.913E-01
   1   13    1     8     6    1.7495E+02 -1.9689E+00   1.7692E+02  0.000E+00  0.000E+00  0.000E+00  9.94865E+02  2.990E+00  4.336E+01  2.651E+00 -2.475E-01





UNSATURATED ZONE PACKAGE VOLUMETRIC BUDGET FOR  TIME STEP    30 STRESS PERIOD   34
  ------------------------------------------------------------------------------



     CUMULATIVE VOLUMES      L**3       RATES FOR THIS TIME STEP      L**3/T
     ------------------                 ------------------------

           IN:                                      IN:
           ---                                      ---
        INFILTRATION =  1378771600.1398          INFILTRATION =          12.0675

          OUT:                                     OUT:
          ----                                     ----
              UZF ET =  1264901095.5505                UZF ET =          12.0675
        UZF RECHARGE =    83658137.1779          UZF RECHARGE =          12.0090

            IN - OUT =    30212367.4114              IN - OUT =         -12.0090

          STORAGE:                                 STORAGE:
          --------                                 --------
      STORAGE CHANGE =    30212369.0965        STORAGE CHANGE =         -12.0090

 PERCENT DISCREPANCY IS DIFFERENCE BETWEEN IN-OUT MINUS CHANGE IN STORAGE
 DIVIDED BY THE AVERAGE OF IN AND OUT TIMES 100

 PERCENT DISCREPANCY =           0.00     PERCENT DISCREPANCY =           0.00






1
  VOLUMETRIC BUDGET FOR AGRICULTURAL FIELDS AT  END OF TIME STEP   30, STRESS PERIOD  34
  ------------------------------------------------------------------------------

     CUMULATIVE VOLUMES      L**3       RATES FOR THIS TIME STEP      L**3/T
     ------------------                 ------------------------

           IN:                                      IN:
           ---                                      ---
               AG WELLS  =  1305143552.0000                 AG WELLS  =          11.2200
      DIVERSION SEGMENTS =           0.0000        DIVERSION SEGMENTS =           0.0000
       IRRIGATION PONDS  =           0.0000         IRRIGATION PONDS  =           0.0000
           GW IRRIGATION =           0.0000             GW IRRIGATION =           0.0000
           SW IRRIGATION =           0.0000             SW IRRIGATION =           0.0000
        SYSTEM LOSSES GW =           0.0000          SYSTEM LOSSES GW =           0.0000
        SYSTEM LOSSES SW =           0.0000          SYSTEM LOSSES SW =           0.0000

                TOTAL IN =  1305143552.0000                  TOTAL IN =          11.2200

          OUT:                                     OUT:
          ----                                     ----
               AG WELLS  =           0.0000                 AG WELLS  =           0.0000
      DIVERSION SEGMENTS =           0.0000        DIVERSION SEGMENTS =           0.0000
       IRRIGATION PONDS  =           0.0000         IRRIGATION PONDS  =           0.0000
           GW IRRIGATION =  1305143552.0000             GW IRRIGATION =          11.2200
           SW IRRIGATION =           0.0000             SW IRRIGATION =           0.0000
        SYSTEM LOSSES GW =           0.0000          SYSTEM LOSSES GW =           0.0000
        SYSTEM LOSSES SW =           0.0000          SYSTEM LOSSES SW =           0.0000

               TOTAL OUT =  1305143552.0000                 TOTAL OUT =          11.2200

                IN - OUT =           0.0000                  IN - OUT =           0.0000

     PERCENT DISCREPANCY =           0.00         PERCENT DISCREPANCY =           0.00



1
  VOLUMETRIC BUDGET FOR ENTIRE MODEL AT END OF TIME STEP   30, STRESS PERIOD  34
  ------------------------------------------------------------------------------

     CUMULATIVE VOLUMES      L**3       RATES FOR THIS TIME STEP      L**3/T
     ------------------                 ------------------------

           IN:                                      IN:
           ---                                      ---
             STORAGE     =  1643233280.0000               STORAGE     =          18.5191
       CONSTANT HEAD     =           0.0000         CONSTANT HEAD     =           0.0000
     HEAD DEP BOUNDS     =    24822882.0000       HEAD DEP BOUNDS     =           0.2870
      STREAM LEAKAGE     =  1065703808.0000        STREAM LEAKAGE     =          12.0007
        UZF RECHARGE     =    83658184.0000          UZF RECHARGE     =          12.0090
               GW ET     =           0.0000                 GW ET     =           0.0000
     SURFACE LEAKAGE     =           0.0000       SURFACE LEAKAGE     =           0.0000
           AG WELLS      =           0.0000             AG WELLS      =           0.0000

                TOTAL IN =  2817418240.0000                  TOTAL IN =          42.8157

          OUT:                                     OUT:
          ----                                     ----
             STORAGE     =   575398656.0000               STORAGE     =          21.3845
       CONSTANT HEAD     =           0.0000         CONSTANT HEAD     =           0.0000
     HEAD DEP BOUNDS     =    25432428.0000       HEAD DEP BOUNDS     =           0.2891
      STREAM LEAKAGE     =   893840256.0000        STREAM LEAKAGE     =           9.9221
        UZF RECHARGE     =           0.0000          UZF RECHARGE     =           0.0000
               GW ET     =    17607784.0000                 GW ET     =           0.0000
     SURFACE LEAKAGE     =           0.0000       SURFACE LEAKAGE     =           0.0000
           AG WELLS      =  1305143552.0000             AG WELLS      =          11.2200

               TOTAL OUT =  2817422848.0000                 TOTAL OUT =          42.8157

                IN - OUT =       -4608.0000                  IN - OUT =       1.1444E-05

     PERCENT DISCREPANCY =          -0.00         PERCENT DISCREPANCY =           0.00






         TIME SUMMARY AT END OF TIME STEP   30 IN STRESS PERIOD   34
                    SECONDS     MINUTES      HOURS       DAYS        YEARS
                    -----------------------------------------------------------
   TIME STEP LENGTH  87667.      1461.1      24.352      1.0147     2.77799E-03
 STRESS PERIOD TIME 2.63000E+06  43833.      730.56      30.440     8.33397E-02
         TOTAL TIME 8.68762E+07 1.44794E+06  24132.      1005.5      2.7529    
1
1
                            STRESS PERIOD NO.   35, LENGTH =   2630000.    
                            -----------------------------------------------

                              NUMBER OF TIME STEPS =    30

                               MULTIPLIER FOR DELT =     1.000

                            INITIAL TIME STEP SIZE =   87666.66    

 REUSING NON-PARAMETER GHB CELLS FROM LAST STRESS PERIOD

      2 GHB CELLS

 REUSING STREAM SEGMENT DATA FROM LAST STRESS PERIOD



            AREAL INFILTRATION RATE
 READING ON UNIT   19 WITH FORMAT: (FREE)              

            1           2           3           4           5           6           7           8           9          10
 ........................................................................................................................
   1   1.0000E-10  2.0000E-10   0.000       0.000       0.000       0.000       0.000       0.000       0.000       0.000    
   2   2.0000E-10  1.0000E-10  2.0000E-10   0.000       0.000      8.0000E-10  8.0000E-10  5.0000E-10   0.000       0.000    
   3    0.000      5.0000E-10  1.0000E-10  1.0000E-10  8.0000E-10  8.0000E-10  5.0000E-10  5.0000E-10   0.000       0.000    
   4   8.0000E-10  5.0000E-10  1.0000E-10  1.0000E-10  1.0000E-10  1.0000E-10  1.0000E-10  1.0000E-10  2.0000E-10   0.000    
   5   8.0000E-10  5.0000E-10  1.0000E-10  1.0000E-10  1.0000E-10  1.0000E-10  1.0000E-10  1.0000E-10  1.0000E-10  1.0000E-10
   6   8.0000E-10  5.0000E-10  5.0000E-10  2.0000E-10  2.0000E-10  1.0000E-10  1.0000E-10  1.0000E-10  1.0000E-10  5.0000E-10
   7   8.0000E-10  5.0000E-10  5.0000E-10  2.0000E-10  2.0000E-10  1.0000E-10  1.0000E-10  2.0000E-10  2.0000E-10   0.000    
   8    0.000      5.0000E-10  5.0000E-10  2.0000E-10  2.0000E-10  1.0000E-10  1.0000E-10  2.0000E-10  5.0000E-10   0.000    
   9    0.000      5.0000E-10  5.0000E-10  2.0000E-10  2.0000E-10  1.0000E-10  1.0000E-10  2.0000E-10  5.0000E-10   0.000    
  10    0.000      5.0000E-10  5.0000E-10  2.0000E-10  2.0000E-10  1.0000E-10  1.0000E-10  2.0000E-10  5.0000E-10  8.0000E-10
  11    0.000      1.0000E-10  1.0000E-10  1.0000E-10  1.0000E-10  1.0000E-10  1.0000E-10  2.0000E-10  5.0000E-10   0.000    
  12   1.0000E-10  1.0000E-10  1.0000E-10  1.0000E-10  1.0000E-10  1.0000E-10  1.0000E-10  1.0000E-10  2.0000E-10   0.000    
  13   1.0000E-10  1.0000E-10  2.0000E-10  2.0000E-10  2.0000E-10  2.0000E-10  2.0000E-10  1.0000E-10  1.0000E-10   0.000    
  14    0.000      2.0000E-10  5.0000E-10  5.0000E-10  5.0000E-10  5.0000E-10  5.0000E-10  2.0000E-10  1.0000E-10   0.000    
  15    0.000       0.000      8.0000E-10  8.0000E-10  8.0000E-10  8.0000E-10   0.000       0.000       0.000       0.000    

                  ET RATE =  5.000000E-09

 USING ET EXTINCTION DEPTH FROM PREVIOUS STRESS PERIOD. CURRENT PERIOD IS:      35

 USING EXTINCTION WATER CONTENT FROM PREVIOUS STRESS PERIOD. CURRENT PERIOD IS:      35

 USING AIR ENTRY PRESSURE FROM PREVIOUS STRESS PERIOD. CURRENT PERIOD IS:      35

 USING ROOT PRESSURE HEAD FROM PREVIOUS STRESS PERIOD. CURRENT PERIOD IS:      35

 USING ROOT ACTIVITY FROM PREVIOUS STRESS PERIOD. CURRENT PERIOD IS:      35

 PROCESSING AG STRESS PERIOD DATA

 READING AG STRESS PERIOD DATA

 READING IRRIGATION WELL

 NO IRRPOND OR REUSING IRRPOND DATA FROM LAST STRESS PERIOD

 END PROCESSING AG STRESS PERIOD DATA OPTIONS
 
 SOLVING FOR HEAD 
                                                   Max.-Head-Change                         Max.-Flux-Residual
  Residual-Control   Outer-Iter.   Inner-Iter.     Column Row Layer    Maximum-Head-Change  Column Row Layer    Maximum-Flux-Residual          L2-NORM 
          0                 1           2             4    7     1       0.1285235879E+00       4    7    1         0.6777995668E+01      0.1367110587E+02
          0                 2           2             5    7     1       0.1423670728E-01       5    7    1         0.8091797842E+00      0.1400844552E+01
          0                 3           2             5    7     1       0.3513543228E-02       5    7    1         0.1923185953E+00      0.2084744802E+00
          0                 4           2             5    7     1       0.8671293159E-03       5    7    1         0.4792718169E-01      0.4802507230E-01
          0                 5           2             5    7     1       0.2140039181E-03       5    7    1         0.1181018454E-01      0.1181104423E-01
          0                 6           1             5    7     1       0.5281529861E-04       5    7    1         0.2914583553E-02      0.2914914296E-02

    ------------------------------------------------
       NWT REQUIRED            6 OUTER ITERATIONS 
       AND A TOTAL OF         11 INNER ITERATIONS.
    ------------------------------------------------

 NO OUTPUT CONTROL FOR STRESS PERIOD   35   TIME STEP    1
 
 SOLVING FOR HEAD 
                                                   Max.-Head-Change                         Max.-Flux-Residual
  Residual-Control   Outer-Iter.   Inner-Iter.     Column Row Layer    Maximum-Head-Change  Column Row Layer    Maximum-Flux-Residual          L2-NORM 
          0                 1           2             4    7     1       0.1301919912E+00       4    7    1         0.6873077443E+01      0.1349343361E+02
          0                 2           2             5    6     1       0.1892130532E-01       5    6    1         0.1048515427E+01      0.1495480619E+01
          0                 3           2             5    6     1       0.4674492616E-02       5    6    1         0.2575326823E+00      0.2798092892E+00
          0                 4           2             5    6     1       0.1154833443E-02       5    6    1         0.6370521177E-01      0.6705259690E-01
          0                 5           2             5    6     1       0.2853018232E-03       5    6    1         0.1573537075E-01      0.1654730506E-01
          0                 6           1             5    6     1       0.7048388566E-04       5    6    1         0.3887531915E-02      0.4088255577E-02

    ------------------------------------------------
       NWT REQUIRED            6 OUTER ITERATIONS 
       AND A TOTAL OF         11 INNER ITERATIONS.
    ------------------------------------------------

 NO OUTPUT CONTROL FOR STRESS PERIOD   35   TIME STEP    2
 
 SOLVING FOR HEAD 
                                                   Max.-Head-Change                         Max.-Flux-Residual
  Residual-Control   Outer-Iter.   Inner-Iter.     Column Row Layer    Maximum-Head-Change  Column Row Layer    Maximum-Flux-Residual          L2-NORM 
          0                 1           2             4    7     1       0.1283548086E+00       4    7    1         0.6775080551E+01      0.1321461158E+02
          0                 2           2             5    8     1       0.1810341758E-01       5    8    1         0.1016335661E+01      0.1536902059E+01
          0                 3           2             5    8     1      -0.1760104633E-02       5    8    1        -0.1010862169E+00      0.1295949570E+00
          0                 4           1             5    8     1       0.1197712727E-03       5    8    1         0.7037218712E-02      0.7796993837E-02
          0                 5           1             5    8     1      -0.4760153377E-05       5    8    1        -0.2861425078E-03      0.2897576610E-03

    ------------------------------------------------
       NWT REQUIRED            5 OUTER ITERATIONS 
       AND A TOTAL OF          8 INNER ITERATIONS.
    ------------------------------------------------

 NO OUTPUT CONTROL FOR STRESS PERIOD   35   TIME STEP    3
 
 SOLVING FOR HEAD 
                                                   Max.-Head-Change                         Max.-Flux-Residual
  Residual-Control   Outer-Iter.   Inner-Iter.     Column Row Layer    Maximum-Head-Change  Column Row Layer    Maximum-Flux-Residual          L2-NORM 
          0                 1           2             4    7     1       0.1263801952E+00       4    7    1         0.6669632425E+01      0.1296955737E+02
          0                 2           2             4    7     1      -0.1228064332E-01       4    7    1        -0.6666230967E+00      0.1289039531E+01
          0                 3           2             4    7     1       0.8294085563E-03       4    7    1         0.4662842874E-01      0.8665454347E-01
          0                 4           1             4    7     1      -0.3296199284E-04       4    7    1        -0.1904741001E-02      0.3539975436E-02

    ------------------------------------------------
       NWT REQUIRED            4 OUTER ITERATIONS 
       AND A TOTAL OF          7 INNER ITERATIONS.
    ------------------------------------------------

 NO OUTPUT CONTROL FOR STRESS PERIOD   35   TIME STEP    4
 
 SOLVING FOR HEAD 
                                                   Max.-Head-Change                         Max.-Flux-Residual
  Residual-Control   Outer-Iter.   Inner-Iter.     Column Row Layer    Maximum-Head-Change  Column Row Layer    Maximum-Flux-Residual          L2-NORM 
          0                 1           2             4    7     1       0.1250481065E+00       4    7    1         0.6566320943E+01      0.1365487937E+02
          0                 2           2             4    6     1       0.2447377119E-01       4    6    1         0.1327641231E+01      0.1971584030E+01
          0                 3           2             4    6     1       0.6015379218E-02       4    6    1         0.3238835700E+00      0.4469416615E+00
          0                 4           2             4    7     1       0.1232792709E-02       4    7    1         0.6705670229E-01      0.8524926744E-01
          0                 5           2             4    7     1       0.3137460943E-03       4    7    1         0.1690869402E-01      0.2017152831E-01
          0                 6           1             4    7     1       0.7986604286E-04       4    7    1         0.4312763181E-02      0.5138791109E-02

    ------------------------------------------------
       NWT REQUIRED            6 OUTER ITERATIONS 
       AND A TOTAL OF         11 INNER ITERATIONS.
    ------------------------------------------------

 NO OUTPUT CONTROL FOR STRESS PERIOD   35   TIME STEP    5
 
 SOLVING FOR HEAD 
                                                   Max.-Head-Change                         Max.-Flux-Residual
  Residual-Control   Outer-Iter.   Inner-Iter.     Column Row Layer    Maximum-Head-Change  Column Row Layer    Maximum-Flux-Residual          L2-NORM 
          0                 1           2             4    7     1       0.1228140524E+00       4    7    1         0.6449931033E+01      0.1338561374E+02
          0                 2           2             4    6     1      -0.1088459052E-01       4    6    1        -0.5978573280E+00      0.1184678329E+01
          0                 3           2             4    6     1       0.7406479705E-03       4    6    1         0.4181883638E-01      0.8795633633E-01
          0                 4           1             4    8     1       0.4924513543E-04       4    8    1         0.2855990016E-02      0.4279860603E-02

    ------------------------------------------------
       NWT REQUIRED            4 OUTER ITERATIONS 
       AND A TOTAL OF          7 INNER ITERATIONS.
    ------------------------------------------------

 NO OUTPUT CONTROL FOR STRESS PERIOD   35   TIME STEP    6
 
 SOLVING FOR HEAD 
                                                   Max.-Head-Change                         Max.-Flux-Residual
  Residual-Control   Outer-Iter.   Inner-Iter.     Column Row Layer    Maximum-Head-Change  Column Row Layer    Maximum-Flux-Residual          L2-NORM 
          0                 1           2             4    7     1       0.1214436710E+00       4    7    1         0.6379717331E+01      0.1315899354E+02
          0                 2           2             4    7     1      -0.1149649916E-01       4    7    1        -0.6376401065E+00      0.1339734997E+01
          0                 3           2             5    7     1       0.2535134385E-02       5    7    1         0.1382694793E+00      0.1620105181E+00
          0                 4           2             5    7     1       0.6256167918E-03       5    7    1         0.3459952609E-01      0.3475594327E-01
          0                 5           2             5    7     1       0.1543884121E-03       5    7    1         0.8519944249E-02      0.8520731256E-02
          0                 6           1             5    7     1       0.3809966909E-04       5    7    1         0.2102537206E-02      0.2102725223E-02

    ------------------------------------------------
       NWT REQUIRED            6 OUTER ITERATIONS 
       AND A TOTAL OF         11 INNER ITERATIONS.
    ------------------------------------------------

 NO OUTPUT CONTROL FOR STRESS PERIOD   35   TIME STEP    7
 
 SOLVING FOR HEAD 
                                                   Max.-Head-Change                         Max.-Flux-Residual
  Residual-Control   Outer-Iter.   Inner-Iter.     Column Row Layer    Maximum-Head-Change  Column Row Layer    Maximum-Flux-Residual          L2-NORM 
          0                 1           2             4    7     1       0.1204413841E+00       4    7    1         0.6330282666E+01      0.1293856305E+02
          0                 2           2             4    7     1      -0.1142819637E-01       4    7    1        -0.6327000672E+00      0.1287643560E+01
          0                 3           2             5    7     1      -0.8426497596E-03       5    7    1        -0.4949629003E-01      0.9682580946E-01
          0                 4           1             5    7     1       0.5734155138E-04       5    7    1         0.3414929319E-02      0.4837999825E-02

    ------------------------------------------------
       NWT REQUIRED            4 OUTER ITERATIONS 
       AND A TOTAL OF          7 INNER ITERATIONS.
    ------------------------------------------------

 NO OUTPUT CONTROL FOR STRESS PERIOD   35   TIME STEP    8
 
 SOLVING FOR HEAD 
                                                   Max.-Head-Change                         Max.-Flux-Residual
  Residual-Control   Outer-Iter.   Inner-Iter.     Column Row Layer    Maximum-Head-Change  Column Row Layer    Maximum-Flux-Residual          L2-NORM 
          0                 1           2             4    7     1       0.1193014668E+00       4    7    1         0.6272811874E+01      0.1272813517E+02
          0                 2           2             4    7     1      -0.1159048394E-01       4    7    1        -0.6269565749E+00      0.1322780235E+01
          0                 3           2             5    6     1       0.2469344551E-02       5    6    1         0.1349874030E+00      0.1588662323E+00
          0                 4           2             5    6     1       0.6099594157E-03       5    6    1         0.3369470153E-01      0.3385705060E-01
          0                 5           2             5    6     1       0.1506674281E-03       5    6    1         0.8309469457E-02      0.8310101766E-02
          0                 6           1             5    6     1       0.3721671058E-04       5    6    1         0.2052561131E-02      0.2052697950E-02

    ------------------------------------------------
       NWT REQUIRED            6 OUTER ITERATIONS 
       AND A TOTAL OF         11 INNER ITERATIONS.
    ------------------------------------------------

 NO OUTPUT CONTROL FOR STRESS PERIOD   35   TIME STEP    9
 
 SOLVING FOR HEAD 
                                                   Max.-Head-Change                         Max.-Flux-Residual
  Residual-Control   Outer-Iter.   Inner-Iter.     Column Row Layer    Maximum-Head-Change  Column Row Layer    Maximum-Flux-Residual          L2-NORM 
          0                 1           2             4    7     1       0.1178925353E+00       4    7    1         0.6199108187E+01      0.1252218001E+02
          0                 2           2             5    6     1       0.1277070531E-01       5    6    1         0.7190819692E+00      0.1169627430E+01
          0                 3           2             4    6     1      -0.1801743054E-02       4    6    1        -0.1009686929E+00      0.1645111203E+00
          0                 4           2             4    6     1      -0.4220229552E-03       4    6    1        -0.2399033214E-01      0.3444092388E-01
          0                 5           1             4    7     1       0.8354231942E-04       4    7    1         0.4524199908E-02      0.6377297813E-02

    ------------------------------------------------
       NWT REQUIRED            5 OUTER ITERATIONS 
       AND A TOTAL OF          9 INNER ITERATIONS.
    ------------------------------------------------

 NO OUTPUT CONTROL FOR STRESS PERIOD   35   TIME STEP   10
 
 SOLVING FOR HEAD 
                                                   Max.-Head-Change                         Max.-Flux-Residual
  Residual-Control   Outer-Iter.   Inner-Iter.     Column Row Layer    Maximum-Head-Change  Column Row Layer    Maximum-Flux-Residual          L2-NORM 
          0                 1           2             4    7     1       0.1156075246E+00       4    7    1         0.6077104799E+01      0.1229438850E+02
          0                 2           2             4    6     1       0.2593933948E-01       4    6    1         0.1411433212E+01      0.1831338324E+01
          0                 3           2             4    6     1       0.5613729533E-02       4    6    1         0.3066077751E+00      0.3214522792E+00
          0                 4           2             4    6     1      -0.5457789758E-03       4    6    1        -0.3065501448E-01      0.3118253550E-01
          0                 5           1             4    6     1       0.3713854520E-04       4    6    1         0.2143915681E-02      0.2155630661E-02

    ------------------------------------------------
       NWT REQUIRED            5 OUTER ITERATIONS 
       AND A TOTAL OF          9 INNER ITERATIONS.
    ------------------------------------------------

 NO OUTPUT CONTROL FOR STRESS PERIOD   35   TIME STEP   11
 
 SOLVING FOR HEAD 
                                                   Max.-Head-Change                         Max.-Flux-Residual
  Residual-Control   Outer-Iter.   Inner-Iter.     Column Row Layer    Maximum-Head-Change  Column Row Layer    Maximum-Flux-Residual          L2-NORM 
          0                 1           2             4    7     1       0.1137024946E+00       4    7    1         0.5978627322E+01      0.1160570583E+02
          0                 2           2             4    8     1       0.1932407783E-01       4    8    1         0.1058583237E+01      0.1495143845E+01
          0                 3           2             4    8     1       0.4885695771E-02       4    8    1         0.2643724936E+00      0.2745760907E+00
          0                 4           2             4    8     1       0.1235253715E-02       4    8    1         0.6704493853E-01      0.6710758515E-01
          0                 5           2             4    8     1       0.3123099304E-03       4    8    1         0.1694302201E-01      0.1694349381E-01
          0                 6           1             4    8     1       0.7896151940E-04       4    8    1         0.4283767305E-02      0.4283872542E-02

    ------------------------------------------------
       NWT REQUIRED            6 OUTER ITERATIONS 
       AND A TOTAL OF         11 INNER ITERATIONS.
    ------------------------------------------------

 NO OUTPUT CONTROL FOR STRESS PERIOD   35   TIME STEP   12
 
 SOLVING FOR HEAD 
                                                   Max.-Head-Change                         Max.-Flux-Residual
  Residual-Control   Outer-Iter.   Inner-Iter.     Column Row Layer    Maximum-Head-Change  Column Row Layer    Maximum-Flux-Residual          L2-NORM 
          0                 1           2             4    7     1       0.1127413875E+00       4    7    1         0.5931538467E+01      0.1139891183E+02
          0                 2           2             4    7     1      -0.1087956814E-01       4    7    1        -0.5928475142E+00      0.1045919585E+01
          0                 3           2             4    7     1       0.7403023638E-03       4    7    1         0.4146819265E-01      0.7316282161E-01
          0                 4           1             4    7     1      -0.2942066290E-04       4    7    1        -0.1693941197E-02      0.2988862655E-02

    ------------------------------------------------
       NWT REQUIRED            4 OUTER ITERATIONS 
       AND A TOTAL OF          7 INNER ITERATIONS.
    ------------------------------------------------

 NO OUTPUT CONTROL FOR STRESS PERIOD   35   TIME STEP   13
 
 SOLVING FOR HEAD 
                                                   Max.-Head-Change                         Max.-Flux-Residual
  Residual-Control   Outer-Iter.   Inner-Iter.     Column Row Layer    Maximum-Head-Change  Column Row Layer    Maximum-Flux-Residual          L2-NORM 
          0                 1           2             4    7     1       0.1113894676E+00       4    7    1         0.5862072647E+01      0.1121564265E+02
          0                 2           2             5    7     1       0.1335236930E-01       5    7    1         0.7565156329E+00      0.1269288576E+01
          0                 3           2             5    7     1       0.3291842945E-02       5    7    1         0.1805161276E+00      0.1942319900E+00
          0                 4           2             5    7     1       0.8115656277E-03       5    7    1         0.4487954041E-01      0.4496350450E-01
          0                 5           2             5    7     1       0.2000818327E-03       5    7    1         0.1104969364E-01      0.1105044373E-01
          0                 6           1             5    7     1       0.4932780924E-04       5    7    1         0.2724221968E-02      0.2724402122E-02

    ------------------------------------------------
       NWT REQUIRED            6 OUTER ITERATIONS 
       AND A TOTAL OF         11 INNER ITERATIONS.
    ------------------------------------------------

 NO OUTPUT CONTROL FOR STRESS PERIOD   35   TIME STEP   14
 
 SOLVING FOR HEAD 
                                                   Max.-Head-Change                         Max.-Flux-Residual
  Residual-Control   Outer-Iter.   Inner-Iter.     Column Row Layer    Maximum-Head-Change  Column Row Layer    Maximum-Flux-Residual          L2-NORM 
          0                 1           2             4    7     1       0.1103474007E+00       4    7    1         0.5810531880E+01      0.1102910187E+02
          0                 2           2             4    7     1      -0.1049605422E-01       4    7    1        -0.5807540532E+00      0.1081462981E+01
          0                 3           2             4    7     1       0.7142176778E-03       4    7    1         0.4079645507E-01      0.8059375300E-01
          0                 4           1             5    7     1       0.4479126254E-04       5    7    1         0.2670539036E-02      0.3947954339E-02

    ------------------------------------------------
       NWT REQUIRED            4 OUTER ITERATIONS 
       AND A TOTAL OF          7 INNER ITERATIONS.
    ------------------------------------------------

 NO OUTPUT CONTROL FOR STRESS PERIOD   35   TIME STEP   15
 
 SOLVING FOR HEAD 
                                                   Max.-Head-Change                         Max.-Flux-Residual
  Residual-Control   Outer-Iter.   Inner-Iter.     Column Row Layer    Maximum-Head-Change  Column Row Layer    Maximum-Flux-Residual          L2-NORM 
          0                 1           2             4    7     1       0.1090793725E+00       4    7    1         0.5745751433E+01      0.1085599297E+02
          0                 2           2             4    7     1       0.1588618843E-01       4    7    1         0.8837719962E+00      0.1276169316E+01
          0                 3           2             4    7     1       0.3999113085E-02       4    7    1         0.2163130211E+00      0.2258487401E+00
          0                 4           1             4    7     1       0.1006718864E-02       4    7    1         0.5484163554E-01      0.5489384914E-01
          0                 5           1             4    7     1       0.2534266114E-03       4    7    1         0.1379016790E-01      0.1379089883E-01
          0                 6           1             4    7     1       0.6379642209E-04       4    7    1         0.3471348778E-02      0.3471585804E-02

    ------------------------------------------------
       NWT REQUIRED            6 OUTER ITERATIONS 
       AND A TOTAL OF          9 INNER ITERATIONS.
    ------------------------------------------------

 NO OUTPUT CONTROL FOR STRESS PERIOD   35   TIME STEP   16
 
 SOLVING FOR HEAD 
                                                   Max.-Head-Change                         Max.-Flux-Residual
  Residual-Control   Outer-Iter.   Inner-Iter.     Column Row Layer    Maximum-Head-Change  Column Row Layer    Maximum-Flux-Residual          L2-NORM 
          0                 1           2             4    7     1       0.1060467994E+00       4    7    1         0.5582886828E+01      0.1068194089E+02
          0                 2           2             4    8     1      -0.7688827560E-02       5    7    1        -0.4284180500E+00      0.7175336833E+00
          0                 3           2             5    6     1      -0.8861862489E-03       5    6    1        -0.5138245017E-01      0.7827609832E-01
          0                 4           2             5    6     1      -0.2337378956E-03       5    6    1        -0.1336758362E-01      0.1601810972E-01
          0                 5           1             5    6     1      -0.6171653197E-04       5    6    1        -0.3532961502E-02      0.4106472375E-02

    ------------------------------------------------
       NWT REQUIRED            5 OUTER ITERATIONS 
       AND A TOTAL OF          9 INNER ITERATIONS.
    ------------------------------------------------

 NO OUTPUT CONTROL FOR STRESS PERIOD   35   TIME STEP   17
 
 SOLVING FOR HEAD 
                                                   Max.-Head-Change                         Max.-Flux-Residual
  Residual-Control   Outer-Iter.   Inner-Iter.     Column Row Layer    Maximum-Head-Change  Column Row Layer    Maximum-Flux-Residual          L2-NORM 
          0                 1           2             4    7     1       0.1043653653E+00       4    7    1         0.5494710947E+01      0.1051646355E+02
          0                 2           2             4    6     1       0.2266699741E-01       4    6    1         0.1230144165E+01      0.1784817906E+01
          0                 3           2             5    6     1       0.4351230174E-02       5    6    1         0.2411824078E+00      0.2720167944E+00
          0                 4           2             5    6     1       0.1074744170E-02       5    6    1         0.5918882572E-01      0.5974721572E-01
          0                 5           2             5    6     1       0.2654600137E-03       5    6    1         0.1464711044E-01      0.1464995057E-01
          0                 6           1             5    6     1       0.6556816270E-04       5    6    1         0.3616411616E-02      0.3616618537E-02

    ------------------------------------------------
       NWT REQUIRED            6 OUTER ITERATIONS 
       AND A TOTAL OF         11 INNER ITERATIONS.
    ------------------------------------------------

 NO OUTPUT CONTROL FOR STRESS PERIOD   35   TIME STEP   18
 
 SOLVING FOR HEAD 
                                                   Max.-Head-Change                         Max.-Flux-Residual
  Residual-Control   Outer-Iter.   Inner-Iter.     Column Row Layer    Maximum-Head-Change  Column Row Layer    Maximum-Flux-Residual          L2-NORM 
          0                 1           2             4    7     1       0.1034106805E+00       4    7    1         0.5446254399E+01      0.1034270236E+02
          0                 2           2             4    7     1      -0.9985270736E-02       4    7    1        -0.5450858519E+00      0.9066750586E+00
          0                 3           2             4    7     1       0.6704774991E-03       4    7    1         0.3809720155E-01      0.7322432149E-01
          0                 4           2             4    8     1      -0.1678614376E-03       4    8    1        -0.9344453749E-02      0.9771217587E-02
          0                 5           1             4    8     1      -0.4576408316E-04       4    8    1        -0.2557026476E-02      0.2557613408E-02

    ------------------------------------------------
       NWT REQUIRED            5 OUTER ITERATIONS 
       AND A TOTAL OF          9 INNER ITERATIONS.
    ------------------------------------------------

 NO OUTPUT CONTROL FOR STRESS PERIOD   35   TIME STEP   19
 
 SOLVING FOR HEAD 
                                                   Max.-Head-Change                         Max.-Flux-Residual
  Residual-Control   Outer-Iter.   Inner-Iter.     Column Row Layer    Maximum-Head-Change  Column Row Layer    Maximum-Flux-Residual          L2-NORM 
          0                 1           2             4    7     1       0.1019602805E+00       4    7    1         0.5375824607E+01      0.1010349650E+02
          0                 2           2             4    7     1      -0.9912830645E-02       4    7    1        -0.5373078526E+00      0.1009852015E+01
          0                 3           2             4    7     1       0.6745175706E-03       4    7    1         0.3758314880E-01      0.7064011152E-01
          0                 4           1             4    7     1      -0.2680612465E-04       4    7    1        -0.1535230344E-02      0.2885818507E-02

    ------------------------------------------------
       NWT REQUIRED            4 OUTER ITERATIONS 
       AND A TOTAL OF          7 INNER ITERATIONS.
    ------------------------------------------------

 NO OUTPUT CONTROL FOR STRESS PERIOD   35   TIME STEP   20
 
 SOLVING FOR HEAD 
                                                   Max.-Head-Change                         Max.-Flux-Residual
  Residual-Control   Outer-Iter.   Inner-Iter.     Column Row Layer    Maximum-Head-Change  Column Row Layer    Maximum-Flux-Residual          L2-NORM 
          0                 1           2             4    7     1       0.9991680378E-01       4    7    1         0.5297591886E+01      0.9372657726E+01
          0                 2           2             4    7     1      -0.9714294697E-02       4    7    1        -0.5294976700E+00      0.9368146396E+00
          0                 3           2             4    7     1       0.6610097853E-03       4    7    1         0.3703693324E-01      0.6553166299E-01
          0                 4           1             4    7     1      -0.2626948762E-04       4    7    1        -0.1512928940E-02      0.2677169033E-02

    ------------------------------------------------
       NWT REQUIRED            4 OUTER ITERATIONS 
       AND A TOTAL OF          7 INNER ITERATIONS.
    ------------------------------------------------

 NO OUTPUT CONTROL FOR STRESS PERIOD   35   TIME STEP   21
 
 SOLVING FOR HEAD 
                                                   Max.-Head-Change                         Max.-Flux-Residual
  Residual-Control   Outer-Iter.   Inner-Iter.     Column Row Layer    Maximum-Head-Change  Column Row Layer    Maximum-Flux-Residual          L2-NORM 
          0                 1           2             4    7     1       0.9726015020E-01       4    7    1         0.5191409382E+01      0.8485640088E+01
          0                 2           2             4    6     1      -0.7754390927E-02       4    6    1        -0.4336560259E+00      0.7767555980E+00
          0                 3           2             4    7     1       0.1751878611E-02       4    7    1         0.9472742348E-01      0.1057993488E+00
          0                 4           1             4    7     1       0.4399761459E-03       4    7    1         0.2401570275E-01      0.2408588879E-01
          0                 5           1             4    7     1       0.1104977696E-03       4    7    1         0.6022582132E-02      0.6022981670E-02
          0                 6           1             4    7     1       0.2775096151E-04       4    7    1         0.1512505007E-02      0.1512617755E-02

    ------------------------------------------------
       NWT REQUIRED            6 OUTER ITERATIONS 
       AND A TOTAL OF          9 INNER ITERATIONS.
    ------------------------------------------------

 NO OUTPUT CONTROL FOR STRESS PERIOD   35   TIME STEP   22
 
 SOLVING FOR HEAD 
                                                   Max.-Head-Change                         Max.-Flux-Residual
  Residual-Control   Outer-Iter.   Inner-Iter.     Column Row Layer    Maximum-Head-Change  Column Row Layer    Maximum-Flux-Residual          L2-NORM 
          0                 1           2             4    7     1       0.9381516042E-01       4    7    1         0.5002244128E+01      0.8321121783E+01
          0                 2           2             4    7     1       0.1474312359E-01       4    7    1         0.8150488786E+00      0.1051706957E+01
          0                 3           2             4    7     1      -0.1433365502E-02       4    7    1        -0.8114162675E-01      0.9371876893E-01
          0                 4           1             4    7     1       0.9753655438E-04       4    7    1         0.5654022239E-02      0.5982619824E-02

    ------------------------------------------------
       NWT REQUIRED            4 OUTER ITERATIONS 
       AND A TOTAL OF          7 INNER ITERATIONS.
    ------------------------------------------------

 NO OUTPUT CONTROL FOR STRESS PERIOD   35   TIME STEP   23
 
 SOLVING FOR HEAD 
                                                   Max.-Head-Change                         Max.-Flux-Residual
  Residual-Control   Outer-Iter.   Inner-Iter.     Column Row Layer    Maximum-Head-Change  Column Row Layer    Maximum-Flux-Residual          L2-NORM 
          0                 1           2             4    7     1       0.9033881254E-01       4    7    1         0.4812566674E+01      0.7563832655E+01
          0                 2           2             4    7     1      -0.8783070966E-02       4    7    1        -0.4810177731E+00      0.7560362679E+00
          0                 3           2             4    7     1       0.5976470951E-03       4    7    1         0.3364603851E-01      0.5288768198E-01
          0                 4           1             4    7     1      -0.2375150194E-04       4    7    1        -0.1374421624E-02      0.2160745107E-02

    ------------------------------------------------
       NWT REQUIRED            4 OUTER ITERATIONS 
       AND A TOTAL OF          7 INNER ITERATIONS.
    ------------------------------------------------

 NO OUTPUT CONTROL FOR STRESS PERIOD   35   TIME STEP   24
 
 SOLVING FOR HEAD 
                                                   Max.-Head-Change                         Max.-Flux-Residual
  Residual-Control   Outer-Iter.   Inner-Iter.     Column Row Layer    Maximum-Head-Change  Column Row Layer    Maximum-Flux-Residual          L2-NORM 
          0                 1           2             4    7     1       0.8814537732E-01       4    7    1         0.4693767922E+01      0.7426952294E+01
          0                 2           2             4    6     1       0.9794970545E-02       4    6    1         0.5435365886E+00      0.8230795958E+00
          0                 3           2             4    6     1       0.2459033738E-02       4    6    1         0.1334349295E+00      0.1403402037E+00
          0                 4           2             4    6     1       0.6173452961E-03       4    6    1         0.3368837624E-01      0.3372951297E-01
          0                 5           2             4    6     1       0.1549856338E-03       4    6    1         0.8450102670E-02      0.8450459380E-02
          0                 6           1             4    6     1       0.3890942636E-04       4    6    1         0.2121502908E-02      0.2121570070E-02

    ------------------------------------------------
       NWT REQUIRED            6 OUTER ITERATIONS 
       AND A TOTAL OF         11 INNER ITERATIONS.
    ------------------------------------------------

 NO OUTPUT CONTROL FOR STRESS PERIOD   35   TIME STEP   25
 
 SOLVING FOR HEAD 
                                                   Max.-Head-Change                         Max.-Flux-Residual
  Residual-Control   Outer-Iter.   Inner-Iter.     Column Row Layer    Maximum-Head-Change  Column Row Layer    Maximum-Flux-Residual          L2-NORM 
          0                 1           2             4    6     1       0.7358026616E-01       4    6    1         0.3952018741E+01      0.6057447966E+01
          0                 2           2             4    6     1       0.1462549564E-01       4    6    1         0.8036553489E+00      0.9254430256E+00
          0                 3           2             4    6     1      -0.1421929273E-02       4    6    1        -0.8015866697E-01      0.8646542583E-01
          0                 4           1             4    6     1       0.9675796274E-04       4    6    1         0.5595806538E-02      0.5757810050E-02

    ------------------------------------------------
       NWT REQUIRED            4 OUTER ITERATIONS 
       AND A TOTAL OF          7 INNER ITERATIONS.
    ------------------------------------------------

 NO OUTPUT CONTROL FOR STRESS PERIOD   35   TIME STEP   26
 
 SOLVING FOR HEAD 
                                                   Max.-Head-Change                         Max.-Flux-Residual
  Residual-Control   Outer-Iter.   Inner-Iter.     Column Row Layer    Maximum-Head-Change  Column Row Layer    Maximum-Flux-Residual          L2-NORM 
          0                 1           2             4    6     1       0.7021104320E-01       4    6    1         0.3766429340E+01      0.5929385000E+01
          0                 2           2             4    6     1      -0.6826139376E-02       4    6    1        -0.3764522220E+00      0.5926833549E+00
          0                 3           2             4    6     1       0.4644912995E-03       4    6    1         0.2633211368E-01      0.4146255149E-01
          0                 4           1             4    6     1      -0.1845991956E-04       4    6    1        -0.1075660947E-02      0.1694103572E-02

    ------------------------------------------------
       NWT REQUIRED            4 OUTER ITERATIONS 
       AND A TOTAL OF          7 INNER ITERATIONS.
    ------------------------------------------------

 NO OUTPUT CONTROL FOR STRESS PERIOD   35   TIME STEP   27
 
 SOLVING FOR HEAD 
                                                   Max.-Head-Change                         Max.-Flux-Residual
  Residual-Control   Outer-Iter.   Inner-Iter.     Column Row Layer    Maximum-Head-Change  Column Row Layer    Maximum-Flux-Residual          L2-NORM 
          0                 1           2             4    6     1       0.6805561461E-01       4    6    1         0.3648022384E+01      0.5833631932E+01
          0                 2           2             4    6     1      -0.6616575498E-02       4    6    1        -0.3646170760E+00      0.5831125710E+00
          0                 3           2             4    6     1       0.4502311800E-03       4    6    1         0.2550425627E-01      0.4079308561E-01
          0                 4           1             4    6     1      -0.1789317920E-04       4    6    1        -0.1041842167E-02      0.1666799441E-02

    ------------------------------------------------
       NWT REQUIRED            4 OUTER ITERATIONS 
       AND A TOTAL OF          7 INNER ITERATIONS.
    ------------------------------------------------

 NO OUTPUT CONTROL FOR STRESS PERIOD   35   TIME STEP   28
 
 SOLVING FOR HEAD 
                                                   Max.-Head-Change                         Max.-Flux-Residual
  Residual-Control   Outer-Iter.   Inner-Iter.     Column Row Layer    Maximum-Head-Change  Column Row Layer    Maximum-Flux-Residual          L2-NORM 
          0                 1           2             4    6     1       0.6601543560E-01       4    6    1         0.3536032942E+01      0.5742798676E+01
          0                 2           2             4    6     1      -0.6418217084E-02       4    6    1        -0.3534233945E+00      0.5740335631E+00
          0                 3           2             4    6     1       0.4367335593E-03       4    6    1         0.2472126905E-01      0.4015799255E-01
          0                 4           1             4    6     1      -0.1735674318E-04       4    6    1        -0.1009856403E-02      0.1640811171E-02

    ------------------------------------------------
       NWT REQUIRED            4 OUTER ITERATIONS 
       AND A TOTAL OF          7 INNER ITERATIONS.
    ------------------------------------------------

 NO OUTPUT CONTROL FOR STRESS PERIOD   35   TIME STEP   29
 
 SOLVING FOR HEAD 
                                                   Max.-Head-Change                         Max.-Flux-Residual
  Residual-Control   Outer-Iter.   Inner-Iter.     Column Row Layer    Maximum-Head-Change  Column Row Layer    Maximum-Flux-Residual          L2-NORM 
          0                 1           2             4    6     1       0.6408275007E-01       4    6    1         0.3430026269E+01      0.5656408156E+01
          0                 2           2             4    6     1      -0.6230310027E-02       4    6    1        -0.3428277221E+00      0.5653986251E+00
          0                 3           2             4    6     1       0.4239471228E-03       4    6    1         0.2398011233E-01      0.3955397823E-01
          0                 4           1             4    6     1      -0.1684857214E-04       4    6    1        -0.9795794895E-03      0.1616133775E-02

    ------------------------------------------------
       NWT REQUIRED            4 OUTER ITERATIONS 
       AND A TOTAL OF          7 INNER ITERATIONS.
    ------------------------------------------------

 NO OUTPUT CONTROL FOR STRESS PERIOD   35   TIME STEP   30



 STREAM LISTING     PERIOD     35   STEP       30

 LAYER ROW COL. STREAM  RCH.  FLOW INTO     FLOW TO   FLOW OUT OF   OVRLND.     DIRECT     STREAM       STREAM     STREAM     STREAM   STREAMBED  STREAMBED
                SEG.NO.  NO.  STRM. RCH.    AQUIFER    STRM. RCH.    RUNOFF     PRECIP       ET          HEAD       DEPTH      WIDTH   CONDCTNC.   GRADIENT

   1    1    1     1     1    1.9000E+01  2.1427E-01   1.8786E+01  0.000E+00  0.000E+00  0.000E+00  1.09413E+03  1.082E+00  1.166E+01  5.249E-02  1.361E+00
   1    2    2     1     2    1.8786E+01  3.3054E-01   1.8455E+01  0.000E+00  0.000E+00  0.000E+00  1.08914E+03  1.077E+00  1.158E+01  8.107E-02  1.359E+00
   1    3    3     1     3    1.8455E+01  2.8064E-01   1.8175E+01  0.000E+00  0.000E+00  0.000E+00  1.08349E+03  1.072E+00  1.149E+01  6.892E-02  1.357E+00
   1    3    4     1     4    1.8175E+01  2.5740E-01   1.7917E+01  0.000E+00  0.000E+00  0.000E+00  1.07848E+03  1.068E+00  1.140E+01  6.328E-02  1.356E+00
   1    4    5     2     1    1.5917E+01  3.0542E-01   1.5612E+01  0.000E+00  0.000E+00  0.000E+00  1.07285E+03  9.157E-01  1.200E+01  7.800E-02  1.305E+00
   1    5    6     2     2    1.5612E+01  2.3438E-01   1.5377E+01  0.000E+00  0.000E+00  0.000E+00  1.06742E+03  9.063E-01  1.200E+01  6.000E-02  1.302E+00
   1    6    6     2     3    1.5377E+01  2.3388E-01   1.5143E+01  0.000E+00  0.000E+00  0.000E+00  1.06269E+03  8.980E-01  1.200E+01  6.000E-02  1.299E+00
   1    7    6     2     4    1.5143E+01  2.3338E-01   1.4910E+01  0.000E+00  0.000E+00  0.000E+00  1.05797E+03  8.897E-01  1.200E+01  6.000E-02  1.297E+00
   1    8    6     2     5    1.4910E+01  2.3289E-01   1.4677E+01  0.000E+00  0.000E+00  0.000E+00  1.05324E+03  8.814E-01  1.200E+01  6.000E-02  1.294E+00
   1    3    5     3     1    2.0000E+00  2.8252E-01   1.7175E+00  0.000E+00  0.000E+00  0.000E+00  1.07555E+03  1.909E+00  9.636E+00  7.227E-02  1.955E+00
   1    3    6     3     2    1.7175E+00  2.4905E-01   1.4684E+00  0.000E+00  0.000E+00  0.000E+00  1.07264E+03  1.727E+00  8.909E+00  6.682E-02  1.864E+00
   1    3    7     3     3    1.4684E+00  1.9718E-01   1.2712E+00  0.000E+00  0.000E+00  0.000E+00  1.06987E+03  1.555E+00  8.218E+00  5.547E-02  1.777E+00
   1    4    8     3     4    1.2712E+00  2.2567E-01   1.0456E+00  0.000E+00  0.000E+00  0.000E+00  1.06682E+03  1.364E+00  7.455E+00  6.709E-02  1.682E+00
   1    5    8     3     5    1.0456E+00  1.5790E-01   8.8768E-01  0.000E+00  0.000E+00  0.000E+00  1.06362E+03  1.164E+00  6.655E+00  4.991E-02  1.582E+00
   1    6    8     3     6    8.8768E-01  5.5980E-02   8.3170E-01  0.000E+00  0.000E+00  0.000E+00  1.06158E+03  1.036E+00  6.145E+00  1.844E-02  1.518E+00
   1    5   10     4     1    1.0000E+01  9.0919E-02   9.9091E+00  0.000E+00  0.000E+00  0.000E+00  1.07836E+03  6.368E-01  1.000E+01  2.500E-02  1.212E+00
   1    5    9     4     2    9.9091E+00  1.8158E-01   9.7275E+00  0.000E+00  0.000E+00  0.000E+00  1.07154E+03  6.315E-01  1.000E+01  5.000E-02  1.211E+00
   1    6    8     4     3    9.7275E+00  1.2689E-01   9.6006E+00  0.000E+00  0.000E+00  0.000E+00  1.06381E+03  6.256E-01  1.000E+01  3.500E-02  1.209E+00
   1    6    8     5     1    1.0432E+01  2.2686E-01   1.0205E+01  0.000E+00  0.000E+00  0.000E+00  1.05868E+03  6.790E-01  1.542E+01  6.166E-02  1.226E+00
   1    7    7     5     2    1.0205E+01  2.7894E-01   9.9265E+00  0.000E+00  0.000E+00  0.000E+00  1.05417E+03  6.732E-01  1.519E+01  7.594E-02  1.224E+00
   1    8    7     5     3    9.9265E+00  1.9221E-01   9.7343E+00  0.000E+00  0.000E+00  0.000E+00  1.04992E+03  6.676E-01  1.497E+01  5.241E-02  1.223E+00
   1    8    6     5     4    9.7343E+00  1.3577E-01   9.5985E+00  0.000E+00  0.000E+00  0.000E+00  1.04691E+03  6.637E-01  1.482E+01  3.706E-02  1.221E+00
   1    9    6     6     1    2.4276E+01  2.5176E-01   2.4024E+01  0.000E+00  0.000E+00  0.000E+00  1.04392E+03  1.196E+00  1.200E+01  6.000E-02  1.399E+00
   1   10    7     6     2    2.4024E+01  2.5131E-01   2.3773E+01  0.000E+00  0.000E+00  0.000E+00  1.03937E+03  1.188E+00  1.200E+01  6.000E-02  1.396E+00
   1   11    7     6     3    2.3773E+01  2.5086E-01   2.3522E+01  0.000E+00  0.000E+00  0.000E+00  1.03482E+03  1.181E+00  1.200E+01  6.000E-02  1.394E+00
   1   12    7     6     4    2.3522E+01  2.5041E-01   2.3271E+01  0.000E+00  0.000E+00  0.000E+00  1.03026E+03  1.173E+00  1.200E+01  6.000E-02  1.391E+00
   1   13    7     6     5    2.3271E+01  7.4624E-03   2.3264E+01  0.000E+00  0.000E+00  0.000E+00  1.02708E+03  1.170E+00  1.200E+01  2.400E-02  1.036E-01
   1   14    9     7     1    1.5000E+02  1.3556E+00   1.4864E+02  0.000E+00  0.000E+00  0.000E+00  1.03987E+03  2.288E+00  5.529E+01  5.593E-01  8.079E-01
   1   13    8     7     2    1.4864E+02  1.9232E+00   1.4672E+02  0.000E+00  0.000E+00  0.000E+00  1.03478E+03  2.279E+00  5.526E+01  6.148E-01  1.043E+00
   1   13    7     7     3    1.4672E+02  1.6311E+00   1.4509E+02  0.000E+00  0.000E+00  0.000E+00  1.02969E+03  2.269E+00  5.521E+01  5.584E-01  9.737E-01
   1   13    6     8     1    1.6835E+02  1.0715E+00   1.6728E+02  0.000E+00  0.000E+00  0.000E+00  1.02481E+03  2.938E+00  4.260E+01  4.341E-01  8.227E-01
   1   13    5     8     2    1.6728E+02  3.1771E-01   1.6696E+02  0.000E+00  0.000E+00  0.000E+00  1.01856E+03  2.933E+00  4.253E+01  4.334E-01  2.443E-01
   1   13    4     8     3    1.6696E+02 -1.9520E+00   1.6892E+02  0.000E+00  0.000E+00  0.000E+00  1.01231E+03  2.939E+00  4.261E+01  4.342E+00 -1.498E-01
   1   13    3     8     4    1.6892E+02 -3.4195E+00   1.7234E+02  0.000E+00  0.000E+00  0.000E+00  1.00608E+03  2.956E+00  4.287E+01  4.368E+00 -2.609E-01
   1   13    2     8     5    1.7234E+02 -2.5213E+00   1.7486E+02  0.000E+00  0.000E+00  0.000E+00  9.99850E+02  2.975E+00  4.314E+01  4.397E+00 -1.912E-01
   1   13    1     8     6    1.7486E+02 -1.9681E+00   1.7683E+02  0.000E+00  0.000E+00  0.000E+00  9.94865E+02  2.990E+00  4.335E+01  2.651E+00 -2.475E-01





UNSATURATED ZONE PACKAGE VOLUMETRIC BUDGET FOR  TIME STEP    30 STRESS PERIOD   35
  ------------------------------------------------------------------------------



     CUMULATIVE VOLUMES      L**3       RATES FOR THIS TIME STEP      L**3/T
     ------------------                 ------------------------

           IN:                                      IN:
           ---                                      ---
        INFILTRATION =  1381000525.0126          INFILTRATION =           0.8475

          OUT:                                     OUT:
          ----                                     ----
              UZF ET =  1267130020.4397                UZF ET =           0.8475
        UZF RECHARGE =   113791351.0189          UZF RECHARGE =           2.4040

            IN - OUT =       79153.5540              IN - OUT =          -2.4040

          STORAGE:                                 STORAGE:
          --------                                 --------
      STORAGE CHANGE =       79155.2785        STORAGE CHANGE =          -2.4040

 PERCENT DISCREPANCY IS DIFFERENCE BETWEEN IN-OUT MINUS CHANGE IN STORAGE
 DIVIDED BY THE AVERAGE OF IN AND OUT TIMES 100

 PERCENT DISCREPANCY =           0.00     PERCENT DISCREPANCY =           0.00






1
  VOLUMETRIC BUDGET FOR AGRICULTURAL FIELDS AT  END OF TIME STEP   30, STRESS PERIOD  35
  ------------------------------------------------------------------------------

     CUMULATIVE VOLUMES      L**3       RATES FOR THIS TIME STEP      L**3/T
     ------------------                 ------------------------

           IN:                                      IN:
           ---                                      ---
               AG WELLS  =  1305143552.0000                 AG WELLS  =           0.0000
      DIVERSION SEGMENTS =           0.0000        DIVERSION SEGMENTS =           0.0000
       IRRIGATION PONDS  =           0.0000         IRRIGATION PONDS  =           0.0000
           GW IRRIGATION =           0.0000             GW IRRIGATION =           0.0000
           SW IRRIGATION =           0.0000             SW IRRIGATION =           0.0000
        SYSTEM LOSSES GW =           0.0000          SYSTEM LOSSES GW =           0.0000
        SYSTEM LOSSES SW =           0.0000          SYSTEM LOSSES SW =           0.0000

                TOTAL IN =  1305143552.0000                  TOTAL IN =           0.0000

          OUT:                                     OUT:
          ----                                     ----
               AG WELLS  =           0.0000                 AG WELLS  =           0.0000
      DIVERSION SEGMENTS =           0.0000        DIVERSION SEGMENTS =           0.0000
       IRRIGATION PONDS  =           0.0000         IRRIGATION PONDS  =           0.0000
           GW IRRIGATION =  1305143552.0000             GW IRRIGATION =           0.0000
           SW IRRIGATION =           0.0000             SW IRRIGATION =           0.0000
        SYSTEM LOSSES GW =           0.0000          SYSTEM LOSSES GW =           0.0000
        SYSTEM LOSSES SW =           0.0000          SYSTEM LOSSES SW =           0.0000

               TOTAL OUT =  1305143552.0000                 TOTAL OUT =           0.0000

                IN - OUT =           0.0000                  IN - OUT =           0.0000

     PERCENT DISCREPANCY =           0.00         PERCENT DISCREPANCY =           0.00



1
  VOLUMETRIC BUDGET FOR ENTIRE MODEL AT END OF TIME STEP   30, STRESS PERIOD  35
  ------------------------------------------------------------------------------

     CUMULATIVE VOLUMES      L**3       RATES FOR THIS TIME STEP      L**3/T
     ------------------                 ------------------------

           IN:                                      IN:
           ---                                      ---
             STORAGE     =  1681671808.0000               STORAGE     =          12.0473
       CONSTANT HEAD     =           0.0000         CONSTANT HEAD     =           0.0000
     HEAD DEP BOUNDS     =    25577806.0000       HEAD DEP BOUNDS     =           0.2871
      STREAM LEAKAGE     =  1097310720.0000        STREAM LEAKAGE     =          12.0353
        UZF RECHARGE     =   113791392.0000          UZF RECHARGE     =           2.4040
               GW ET     =           0.0000                 GW ET     =           0.0000
     SURFACE LEAKAGE     =           0.0000       SURFACE LEAKAGE     =           0.0000
           AG WELLS      =           0.0000             AG WELLS      =           0.0000

                TOTAL IN =  2918351872.0000                  TOTAL IN =          26.7737

          OUT:                                     OUT:
          ----                                     ----
             STORAGE     =   649555712.0000               STORAGE     =          16.6238
       CONSTANT HEAD     =           0.0000         CONSTANT HEAD     =           0.0000
     HEAD DEP BOUNDS     =    26192738.0000       HEAD DEP BOUNDS     =           0.2891
      STREAM LEAKAGE     =   919855872.0000        STREAM LEAKAGE     =           9.8609
        UZF RECHARGE     =           0.0000          UZF RECHARGE     =           0.0000
               GW ET     =    17607784.0000                 GW ET     =           0.0000
     SURFACE LEAKAGE     =           0.0000       SURFACE LEAKAGE     =           0.0000
           AG WELLS      =  1305143552.0000             AG WELLS      =           0.0000

               TOTAL OUT =  2918355712.0000                 TOTAL OUT =          26.7737

                IN - OUT =       -3840.0000                  IN - OUT =       1.7166E-05

     PERCENT DISCREPANCY =          -0.00         PERCENT DISCREPANCY =           0.00






         TIME SUMMARY AT END OF TIME STEP   30 IN STRESS PERIOD   35
                    SECONDS     MINUTES      HOURS       DAYS        YEARS
                    -----------------------------------------------------------
   TIME STEP LENGTH  87667.      1461.1      24.352      1.0147     2.77799E-03
 STRESS PERIOD TIME 2.63000E+06  43833.      730.56      30.440     8.33397E-02
         TOTAL TIME 8.95061E+07 1.49177E+06  24863.      1036.0      2.8363    
1
1
                            STRESS PERIOD NO.   36, LENGTH =   2630000.    
                            -----------------------------------------------

                              NUMBER OF TIME STEPS =    30

                               MULTIPLIER FOR DELT =     1.000

                            INITIAL TIME STEP SIZE =   87666.66    

 REUSING NON-PARAMETER GHB CELLS FROM LAST STRESS PERIOD

      2 GHB CELLS

 REUSING STREAM SEGMENT DATA FROM LAST STRESS PERIOD



            AREAL INFILTRATION RATE
 READING ON UNIT   19 WITH FORMAT: (FREE)              

            1           2           3           4           5           6           7           8           9          10
 ........................................................................................................................
   1   1.0000E-10  2.0000E-10   0.000       0.000       0.000       0.000       0.000       0.000       0.000       0.000    
   2   2.0000E-10  1.0000E-10  2.0000E-10   0.000       0.000      8.0000E-10  8.0000E-10  5.0000E-10   0.000       0.000    
   3    0.000      5.0000E-10  1.0000E-10  1.0000E-10  8.0000E-10  8.0000E-10  5.0000E-10  5.0000E-10   0.000       0.000    
   4   8.0000E-10  5.0000E-10  1.0000E-10  1.0000E-10  1.0000E-10  1.0000E-10  1.0000E-10  1.0000E-10  2.0000E-10   0.000    
   5   8.0000E-10  5.0000E-10  1.0000E-10  1.0000E-10  1.0000E-10  1.0000E-10  1.0000E-10  1.0000E-10  1.0000E-10  1.0000E-10
   6   8.0000E-10  5.0000E-10  5.0000E-10  2.0000E-10  2.0000E-10  1.0000E-10  1.0000E-10  1.0000E-10  1.0000E-10  5.0000E-10
   7   8.0000E-10  5.0000E-10  5.0000E-10  2.0000E-10  2.0000E-10  1.0000E-10  1.0000E-10  2.0000E-10  2.0000E-10   0.000    
   8    0.000      5.0000E-10  5.0000E-10  2.0000E-10  2.0000E-10  1.0000E-10  1.0000E-10  2.0000E-10  5.0000E-10   0.000    
   9    0.000      5.0000E-10  5.0000E-10  2.0000E-10  2.0000E-10  1.0000E-10  1.0000E-10  2.0000E-10  5.0000E-10   0.000    
  10    0.000      5.0000E-10  5.0000E-10  2.0000E-10  2.0000E-10  1.0000E-10  1.0000E-10  2.0000E-10  5.0000E-10  8.0000E-10
  11    0.000      1.0000E-10  1.0000E-10  1.0000E-10  1.0000E-10  1.0000E-10  1.0000E-10  2.0000E-10  5.0000E-10   0.000    
  12   1.0000E-10  1.0000E-10  1.0000E-10  1.0000E-10  1.0000E-10  1.0000E-10  1.0000E-10  1.0000E-10  2.0000E-10   0.000    
  13   1.0000E-10  1.0000E-10  2.0000E-10  2.0000E-10  2.0000E-10  2.0000E-10  2.0000E-10  1.0000E-10  1.0000E-10   0.000    
  14    0.000      2.0000E-10  5.0000E-10  5.0000E-10  5.0000E-10  5.0000E-10  5.0000E-10  2.0000E-10  1.0000E-10   0.000    
  15    0.000       0.000      8.0000E-10  8.0000E-10  8.0000E-10  8.0000E-10   0.000       0.000       0.000       0.000    

                  ET RATE =  5.000000E-10

 USING ET EXTINCTION DEPTH FROM PREVIOUS STRESS PERIOD. CURRENT PERIOD IS:      36

 USING EXTINCTION WATER CONTENT FROM PREVIOUS STRESS PERIOD. CURRENT PERIOD IS:      36

 USING AIR ENTRY PRESSURE FROM PREVIOUS STRESS PERIOD. CURRENT PERIOD IS:      36

 USING ROOT PRESSURE HEAD FROM PREVIOUS STRESS PERIOD. CURRENT PERIOD IS:      36

 USING ROOT ACTIVITY FROM PREVIOUS STRESS PERIOD. CURRENT PERIOD IS:      36

 PROCESSING AG STRESS PERIOD DATA

 READING AG STRESS PERIOD DATA

 READING IRRIGATION WELL

 NO IRRPOND OR REUSING IRRPOND DATA FROM LAST STRESS PERIOD

 END PROCESSING AG STRESS PERIOD DATA OPTIONS
 
 SOLVING FOR HEAD 
                                                   Max.-Head-Change                         Max.-Flux-Residual
  Residual-Control   Outer-Iter.   Inner-Iter.     Column Row Layer    Maximum-Head-Change  Column Row Layer    Maximum-Flux-Residual          L2-NORM 
          0                 1           2             4    7     1       0.4144003354E-01       4    7    1         0.2193538185E+01      0.4565208061E+01
          0                 2           2             4    7     1      -0.4028858368E-02       4    7    1        -0.2192386048E+00      0.4563471145E+00
          0                 3           2             4    7     1       0.2741446772E-03       4    7    1         0.1533519350E-01      0.3192730467E-01
          0                 4           1             4    7     1      -0.1089488978E-04       4    7    1        -0.6264287449E-03      0.1304680778E-02

    ------------------------------------------------
       NWT REQUIRED            4 OUTER ITERATIONS 
       AND A TOTAL OF          7 INNER ITERATIONS.
    ------------------------------------------------

 NO OUTPUT CONTROL FOR STRESS PERIOD   36   TIME STEP    1
 
 SOLVING FOR HEAD 
                                                   Max.-Head-Change                         Max.-Flux-Residual
  Residual-Control   Outer-Iter.   Inner-Iter.     Column Row Layer    Maximum-Head-Change  Column Row Layer    Maximum-Flux-Residual          L2-NORM 
          0                 1           2             4    7     1       0.4069555392E-01       4    7    1         0.2153123978E+01      0.4509432371E+01
          0                 2           2             4    7     1      -0.3956477049E-02       4    7    1        -0.2151991772E+00      0.4507713303E+00
          0                 3           2             4    7     1       0.2692194004E-03       4    7    1         0.1505264105E-01      0.3153716485E-01
          0                 4           1             4    7     1      -0.1069914672E-04       4    7    1        -0.6148863672E-03      0.1288725162E-02

    ------------------------------------------------
       NWT REQUIRED            4 OUTER ITERATIONS 
       AND A TOTAL OF          7 INNER ITERATIONS.
    ------------------------------------------------

 NO OUTPUT CONTROL FOR STRESS PERIOD   36   TIME STEP    2
 
 SOLVING FOR HEAD 
                                                   Max.-Head-Change                         Max.-Flux-Residual
  Residual-Control   Outer-Iter.   Inner-Iter.     Column Row Layer    Maximum-Head-Change  Column Row Layer    Maximum-Flux-Residual          L2-NORM 
          0                 1           2             4    7     1       0.3998221698E-01       4    7    1         0.2114443720E+01      0.4455372281E+01
          0                 2           2             4    7     1      -0.3887123622E-02       4    7    1        -0.2113330636E+00      0.4453665186E+00
          0                 3           2             4    7     1       0.2645001636E-03       4    7    1         0.1478221187E-01      0.3115901709E-01
          0                 4           1             4    7     1      -0.1051159292E-04       4    7    1        -0.6038392521E-03      0.1273277902E-02

    ------------------------------------------------
       NWT REQUIRED            4 OUTER ITERATIONS 
       AND A TOTAL OF          7 INNER ITERATIONS.
    ------------------------------------------------

 NO OUTPUT CONTROL FOR STRESS PERIOD   36   TIME STEP    3
 
 SOLVING FOR HEAD 
                                                   Max.-Head-Change                         Max.-Flux-Residual
  Residual-Control   Outer-Iter.   Inner-Iter.     Column Row Layer    Maximum-Head-Change  Column Row Layer    Maximum-Flux-Residual          L2-NORM 
          0                 1           2             4    7     1       0.3929802767E-01       4    7    1         0.2077385436E+01      0.4402891703E+01
          0                 2           2             4    7     1      -0.3820604117E-02       4    7    1        -0.2076290719E+00      0.4401207880E+00
          0                 3           2             4    7     1       0.2599737680E-03       4    7    1         0.1452312312E-01      0.3079198165E-01
          0                 4           1             4    7     1      -0.1033170306E-04       4    7    1        -0.5932554095E-03      0.1258272470E-02

    ------------------------------------------------
       NWT REQUIRED            4 OUTER ITERATIONS 
       AND A TOTAL OF          7 INNER ITERATIONS.
    ------------------------------------------------

 NO OUTPUT CONTROL FOR STRESS PERIOD   36   TIME STEP    4
 
 SOLVING FOR HEAD 
                                                   Max.-Head-Change                         Max.-Flux-Residual
  Residual-Control   Outer-Iter.   Inner-Iter.     Column Row Layer    Maximum-Head-Change  Column Row Layer    Maximum-Flux-Residual          L2-NORM 
          0                 1           2             4    7     1       0.3864089490E-01       4    7    1         0.2041831126E+01      0.4351887820E+01
          0                 2           2             4    7     1      -0.3756715220E-02       4    7    1        -0.2040754073E+00      0.4350220357E+00
          0                 3           2             4    7     1       0.2556263778E-03       4    7    1         0.1427454966E-01      0.3043524090E-01
          0                 4           1             4    7     1      -0.1015892727E-04       4    7    1        -0.5831011231E-03      0.1243697922E-02

    ------------------------------------------------
       NWT REQUIRED            4 OUTER ITERATIONS 
       AND A TOTAL OF          7 INNER ITERATIONS.
    ------------------------------------------------

 NO OUTPUT CONTROL FOR STRESS PERIOD   36   TIME STEP    5
 
 SOLVING FOR HEAD 
                                                   Max.-Head-Change                         Max.-Flux-Residual
  Residual-Control   Outer-Iter.   Inner-Iter.     Column Row Layer    Maximum-Head-Change  Column Row Layer    Maximum-Flux-Residual          L2-NORM 
          0                 1           2             4    7     1       0.3800928051E-01       4    7    1         0.2007694214E+01      0.4302261632E+01
          0                 2           2             4    7     1      -0.3695307383E-02       4    7    1        -0.2006634163E+00      0.4300612190E+00
          0                 3           2             4    7     1       0.2514478167E-03       4    7    1         0.1403588621E-01      0.3008815064E-01
          0                 4           1             4    7     1      -0.9992862035E-05       4    7    1        -0.5733516900E-03      0.1229564737E-02

    ------------------------------------------------
       NWT REQUIRED            4 OUTER ITERATIONS 
       AND A TOTAL OF          7 INNER ITERATIONS.
    ------------------------------------------------

 NO OUTPUT CONTROL FOR STRESS PERIOD   36   TIME STEP    6
 
 SOLVING FOR HEAD 
                                                   Max.-Head-Change                         Max.-Flux-Residual
  Residual-Control   Outer-Iter.   Inner-Iter.     Column Row Layer    Maximum-Head-Change  Column Row Layer    Maximum-Flux-Residual          L2-NORM 
          0                 1           2             4    7     1       0.3740137545E-01       4    7    1         0.1974873104E+01      0.4253926483E+01
          0                 2           2             4    7     1      -0.3636204714E-02       4    7    1        -0.1973829439E+00      0.4252293861E+00
          0                 3           2             4    7     1       0.2474261163E-03       4    7    1         0.1380642247E-01      0.2975008413E-01
          0                 4           1             4    7     1      -0.9833030503E-05       4    7    1        -0.5639780679E-03      0.1215710546E-02

    ------------------------------------------------
       NWT REQUIRED            4 OUTER ITERATIONS 
       AND A TOTAL OF          7 INNER ITERATIONS.
    ------------------------------------------------

 NO OUTPUT CONTROL FOR STRESS PERIOD   36   TIME STEP    7
 
 SOLVING FOR HEAD 
                                                   Max.-Head-Change                         Max.-Flux-Residual
  Residual-Control   Outer-Iter.   Inner-Iter.     Column Row Layer    Maximum-Head-Change  Column Row Layer    Maximum-Flux-Residual          L2-NORM 
          0                 1           2             4    7     1       0.3681576688E-01       4    7    1         0.1943288564E+01      0.4206792918E+01
          0                 2           2             4    7     1      -0.3579269849E-02       4    7    1        -0.1942260705E+00      0.4205177130E+00
          0                 3           2             4    7     1       0.2435519293E-03       4    7    1         0.1358560444E-01      0.2942043893E-01
          0                 4           1             4    7     1      -0.9679061728E-05       4    7    1        -0.5549576545E-03      0.1202228669E-02

    ------------------------------------------------
       NWT REQUIRED            4 OUTER ITERATIONS 
       AND A TOTAL OF          7 INNER ITERATIONS.
    ------------------------------------------------

 NO OUTPUT CONTROL FOR STRESS PERIOD   36   TIME STEP    8
 
 SOLVING FOR HEAD 
                                                   Max.-Head-Change                         Max.-Flux-Residual
  Residual-Control   Outer-Iter.   Inner-Iter.     Column Row Layer    Maximum-Head-Change  Column Row Layer    Maximum-Flux-Residual          L2-NORM 
          0                 1           2             4    7     1       0.3625116474E-01       4    7    1         0.1912867342E+01      0.4160807962E+01
          0                 2           2             4    7     1      -0.3524377356E-02       4    7    1        -0.1911854742E+00      0.4159208738E+00
          0                 3           2             4    7     1       0.2398167190E-03       4    7    1         0.1337291991E-01      0.2909882148E-01
          0                 4           1             4    7     1      -0.9530616430E-05       4    7    1        -0.5462694785E-03      0.1189075686E-02

    ------------------------------------------------
       NWT REQUIRED            4 OUTER ITERATIONS 
       AND A TOTAL OF          7 INNER ITERATIONS.
    ------------------------------------------------

 NO OUTPUT CONTROL FOR STRESS PERIOD   36   TIME STEP    9
 
 SOLVING FOR HEAD 
                                                   Max.-Head-Change                         Max.-Flux-Residual
  Residual-Control   Outer-Iter.   Inner-Iter.     Column Row Layer    Maximum-Head-Change  Column Row Layer    Maximum-Flux-Residual          L2-NORM 
          0                 1           2             4    7     1       0.3570610697E-01       4    7    1         0.1883527983E+01      0.4115899356E+01
          0                 2           2             4    7     1      -0.3471385085E-02       4    7    1        -0.1882530133E+00      0.4114316574E+00
          0                 3           2             4    7     1       0.2362108140E-03       4    7    1         0.1316779942E-01      0.2878474244E-01
          0                 4           1             4    7     1      -0.9387310083E-05       4    7    1        -0.5378903234E-03      0.1176246113E-02

    ------------------------------------------------
       NWT REQUIRED            4 OUTER ITERATIONS 
       AND A TOTAL OF          7 INNER ITERATIONS.
    ------------------------------------------------

 NO OUTPUT CONTROL FOR STRESS PERIOD   36   TIME STEP   10
 
 SOLVING FOR HEAD 
                                                   Max.-Head-Change                         Max.-Flux-Residual
  Residual-Control   Outer-Iter.   Inner-Iter.     Column Row Layer    Maximum-Head-Change  Column Row Layer    Maximum-Flux-Residual          L2-NORM 
          0                 1           2             4    7     1       0.3517937775E-01       4    7    1         0.1855201964E+01      0.4072000501E+01
          0                 2           2             4    7     1      -0.3420174824E-02       4    7    1        -0.1854218386E+00      0.4070433822E+00
          0                 3           2             4    7     1       0.2327261689E-03       4    7    1         0.1296976381E-01      0.2847771206E-01
          0                 4           1             4    7     1      -0.9248823323E-05       4    7    1        -0.5298005894E-03      0.1163702387E-02

    ------------------------------------------------
       NWT REQUIRED            4 OUTER ITERATIONS 
       AND A TOTAL OF          7 INNER ITERATIONS.
    ------------------------------------------------

 NO OUTPUT CONTROL FOR STRESS PERIOD   36   TIME STEP   11
 
 SOLVING FOR HEAD 
                                                   Max.-Head-Change                         Max.-Flux-Residual
  Residual-Control   Outer-Iter.   Inner-Iter.     Column Row Layer    Maximum-Head-Change  Column Row Layer    Maximum-Flux-Residual          L2-NORM 
          0                 1           2             4    7     1       0.3467011161E-01       4    7    1         0.1827840819E+01      0.4029074619E+01
          0                 2           2             4    7     1      -0.3370662427E-02       4    7    1        -0.1826871057E+00      0.4027524109E+00
          0                 3           2             4    7     1       0.2293570587E-03       4    7    1         0.1277847427E-01      0.2817752104E-01
          0                 4           1             4    7     1      -0.9114928082E-05       4    7    1        -0.5219864379E-03      0.1151434746E-02

    ------------------------------------------------
       NWT REQUIRED            4 OUTER ITERATIONS 
       AND A TOTAL OF          7 INNER ITERATIONS.
    ------------------------------------------------

 NO OUTPUT CONTROL FOR STRESS PERIOD   36   TIME STEP   12
 
 SOLVING FOR HEAD 
                                                   Max.-Head-Change                         Max.-Flux-Residual
  Residual-Control   Outer-Iter.   Inner-Iter.     Column Row Layer    Maximum-Head-Change  Column Row Layer    Maximum-Flux-Residual          L2-NORM 
          0                 1           2             4    7     1       0.3417725732E-01       4    7    1         0.1801385104E+01      0.3987069275E+01
          0                 2           2             4    7     1      -0.3322745683E-02       4    7    1        -0.1800428730E+00      0.3985536335E+00
          0                 3           2             4    7     1       0.2260965276E-03       4    7    1         0.1259351516E-01      0.2788394199E-01
          0                 4           1             4    7     1      -0.8985348284E-05       4    7    1        -0.5144308952E-03      0.1139436995E-02

    ------------------------------------------------
       NWT REQUIRED            4 OUTER ITERATIONS 
       AND A TOTAL OF          7 INNER ITERATIONS.
    ------------------------------------------------

 NO OUTPUT CONTROL FOR STRESS PERIOD   36   TIME STEP   13
 
 SOLVING FOR HEAD 
                                                   Max.-Head-Change                         Max.-Flux-Residual
  Residual-Control   Outer-Iter.   Inner-Iter.     Column Row Layer    Maximum-Head-Change  Column Row Layer    Maximum-Flux-Residual          L2-NORM 
          0                 1           2             4    7     1       0.3369969881E-01       4    7    1         0.1775773029E+01      0.3945928637E+01
          0                 2           2             4    7     1      -0.3276316083E-02       4    7    1        -0.1774829641E+00      0.3944409753E+00
          0                 3           2             4    7     1       0.2229371922E-03       4    7    1         0.1241445444E-01      0.2759602898E-01
          0                 4           1             4    7     1      -0.8859790123E-05       4    7    1        -0.5071163059E-03      0.1127674967E-02

    ------------------------------------------------
       NWT REQUIRED            4 OUTER ITERATIONS 
       AND A TOTAL OF          7 INNER ITERATIONS.
    ------------------------------------------------

 NO OUTPUT CONTROL FOR STRESS PERIOD   36   TIME STEP   14
 
 SOLVING FOR HEAD 
                                                   Max.-Head-Change                         Max.-Flux-Residual
  Residual-Control   Outer-Iter.   Inner-Iter.     Column Row Layer    Maximum-Head-Change  Column Row Layer    Maximum-Flux-Residual          L2-NORM 
          0                 1           2             4    7     1       0.3323667802E-01       4    7    1         0.1750961299E+01      0.3905635091E+01
          0                 2           2             4    7     1      -0.3231299911E-02       4    7    1        -0.1750030518E+00      0.3904034143E+00
          0                 3           2             4    7     1       0.2198740360E-03       4    7    1         0.1224098943E-01      0.2731355189E-01
          0                 4           1             4    7     1      -0.8738054313E-05       4    7    1        -0.5000303036E-03      0.1116129474E-02

    ------------------------------------------------
       NWT REQUIRED            4 OUTER ITERATIONS 
       AND A TOTAL OF          7 INNER ITERATIONS.
    ------------------------------------------------

 NO OUTPUT CONTROL FOR STRESS PERIOD   36   TIME STEP   15
 
 SOLVING FOR HEAD 
                                                   Max.-Head-Change                         Max.-Flux-Residual
  Residual-Control   Outer-Iter.   Inner-Iter.     Column Row Layer    Maximum-Head-Change  Column Row Layer    Maximum-Flux-Residual          L2-NORM 
          0                 1           2             4    7     1       0.3278735386E-01       4    7    1         0.1726903324E+01      0.3866140710E+01
          0                 2           2             4    7     1      -0.3187615133E-02       4    7    1        -0.1725984790E+00      0.3864411120E+00
          0                 3           2             4    7     1       0.2169014770E-03       4    7    1         0.1207279435E-01      0.2703632619E-01
          0                 4           1             4    7     1      -0.8619919465E-05       4    7    1        -0.4931595977E-03      0.1104796710E-02

    ------------------------------------------------
       NWT REQUIRED            4 OUTER ITERATIONS 
       AND A TOTAL OF          7 INNER ITERATIONS.
    ------------------------------------------------

 NO OUTPUT CONTROL FOR STRESS PERIOD   36   TIME STEP   16
 
 SOLVING FOR HEAD 
                                                   Max.-Head-Change                         Max.-Flux-Residual
  Residual-Control   Outer-Iter.   Inner-Iter.     Column Row Layer    Maximum-Head-Change  Column Row Layer    Maximum-Flux-Residual          L2-NORM 
          0                 1           2             4    7     1       0.3235095232E-01       4    7    1         0.1703555510E+01      0.3827455227E+01
          0                 2           2             4    7     1      -0.3145187325E-02       4    7    1        -0.1702648883E+00      0.3825981160E+00
          0                 3           2             4    7     1       0.2140144509E-03       4    7    1         0.1190956442E-01      0.2676747383E-01
          0                 4           1             4    7     1      -0.8505183298E-05       4    7    1        -0.4864917018E-03      0.1093813511E-02

    ------------------------------------------------
       NWT REQUIRED            4 OUTER ITERATIONS 
       AND A TOTAL OF          7 INNER ITERATIONS.
    ------------------------------------------------

 NO OUTPUT CONTROL FOR STRESS PERIOD   36   TIME STEP   17
 
 SOLVING FOR HEAD 
                                                   Max.-Head-Change                         Max.-Flux-Residual
  Residual-Control   Outer-Iter.   Inner-Iter.     Column Row Layer    Maximum-Head-Change  Column Row Layer    Maximum-Flux-Residual          L2-NORM 
          0                 1           2             4    7     1       0.3192688534E-01       4    7    1         0.1680884969E+01      0.3789565375E+01
          0                 2           2             4    7     1      -0.3103958461E-02       4    7    1        -0.1679989926E+00      0.3788108525E+00
          0                 3           2             4    7     1       0.2112090087E-03       4    7    1         0.1175106968E-01      0.2650251265E-01
          0                 4           1             4    7     1      -0.8393690046E-05       4    7    1        -0.4800172464E-03      0.1082986670E-02

    ------------------------------------------------
       NWT REQUIRED            4 OUTER ITERATIONS 
       AND A TOTAL OF          7 INNER ITERATIONS.
    ------------------------------------------------

 NO OUTPUT CONTROL FOR STRESS PERIOD   36   TIME STEP   18
 
 SOLVING FOR HEAD 
                                                   Max.-Head-Change                         Max.-Flux-Residual
  Residual-Control   Outer-Iter.   Inner-Iter.     Column Row Layer    Maximum-Head-Change  Column Row Layer    Maximum-Flux-Residual          L2-NORM 
          0                 1           2             4    7     1       0.3151448123E-01       4    7    1         0.1658853969E+01      0.3752378115E+01
          0                 2           2             4    7     1      -0.3063863521E-02       4    7    1        -0.1657970201E+00      0.3750936052E+00
          0                 3           2             4    7     1       0.2084807265E-03       4    7    1         0.1159704632E-01      0.2624245173E-01
          0                 4           1             4    7     1      -0.8285263563E-05       4    7    1        -0.4737254708E-03      0.1072359030E-02

    ------------------------------------------------
       NWT REQUIRED            4 OUTER ITERATIONS 
       AND A TOTAL OF          7 INNER ITERATIONS.
    ------------------------------------------------

 NO OUTPUT CONTROL FOR STRESS PERIOD   36   TIME STEP   19
 
 SOLVING FOR HEAD 
                                                   Max.-Head-Change                         Max.-Flux-Residual
  Residual-Control   Outer-Iter.   Inner-Iter.     Column Row Layer    Maximum-Head-Change  Column Row Layer    Maximum-Flux-Residual          L2-NORM 
          0                 1           2             4    7     1       0.3111297840E-01       4    7    1         0.1637420377E+01      0.3715872068E+01
          0                 2           2             4    7     1      -0.3024828460E-02       4    7    1        -0.1636547598E+00      0.3714444919E+00
          0                 3           2             4    7     1       0.2058245655E-03       4    7    1         0.1144719976E-01      0.2598716656E-01
          0                 4           1             4    7     1      -0.8179703411E-05       4    7    1        -0.4676043241E-03      0.1061931489E-02

    ------------------------------------------------
       NWT REQUIRED            4 OUTER ITERATIONS 
       AND A TOTAL OF          7 INNER ITERATIONS.
    ------------------------------------------------

 NO OUTPUT CONTROL FOR STRESS PERIOD   36   TIME STEP   20
 
 SOLVING FOR HEAD 
                                                   Max.-Head-Change                         Max.-Flux-Residual
  Residual-Control   Outer-Iter.   Inner-Iter.     Column Row Layer    Maximum-Head-Change  Column Row Layer    Maximum-Flux-Residual          L2-NORM 
          0                 1           2             4    7     1       0.3072207401E-01       4    7    1         0.1616566577E+01      0.3680020435E+01
          0                 2           2             4    7     1      -0.2986823831E-02       4    7    1        -0.1615704507E+00      0.3678607384E+00
          0                 3           2             4    7     1       0.2032385215E-03       4    7    1         0.1130140683E-01      0.2573643467E-01
          0                 4           1             4    7     1      -0.8076929578E-05       4    7    1        -0.4616487527E-03      0.1051681480E-02

    ------------------------------------------------
       NWT REQUIRED            4 OUTER ITERATIONS 
       AND A TOTAL OF          7 INNER ITERATIONS.
    ------------------------------------------------

 NO OUTPUT CONTROL FOR STRESS PERIOD   36   TIME STEP   21
 
 SOLVING FOR HEAD 
                                                   Max.-Head-Change                         Max.-Flux-Residual
  Residual-Control   Outer-Iter.   Inner-Iter.     Column Row Layer    Maximum-Head-Change  Column Row Layer    Maximum-Flux-Residual          L2-NORM 
          0                 1           2             4    7     1       0.3034095064E-01       4    7    1         0.1596247706E+01      0.3644796771E+01
          0                 2           2             4    7     1      -0.2949770161E-02       4    7    1        -0.1595396085E+00      0.3643398644E+00
          0                 3           2             4    7     1       0.2007171874E-03       4    7    1         0.1115935389E-01      0.2549012763E-01
          0                 4           1             4    7     1      -0.7976727465E-05       4    7    1        -0.4558459464E-03      0.1041617652E-02

    ------------------------------------------------
       NWT REQUIRED            4 OUTER ITERATIONS 
       AND A TOTAL OF          7 INNER ITERATIONS.
    ------------------------------------------------

 NO OUTPUT CONTROL FOR STRESS PERIOD   36   TIME STEP   22
 
 SOLVING FOR HEAD 
                                                   Max.-Head-Change                         Max.-Flux-Residual
  Residual-Control   Outer-Iter.   Inner-Iter.     Column Row Layer    Maximum-Head-Change  Column Row Layer    Maximum-Flux-Residual          L2-NORM 
          0                 1           2             4    7     1       0.2996937877E-01       4    7    1         0.1576450546E+01      0.3610182244E+01
          0                 2           2             4    7     1      -0.2913645131E-02       4    7    1        -0.1575609122E+00      0.3608798448E+00
          0                 3           2             4    7     1       0.1982590438E-03       4    7    1         0.1102094846E-01      0.2524806984E-01
          0                 4           1             4    7     1      -0.7879036746E-05       4    7    1        -0.4501921658E-03      0.1031731619E-02

    ------------------------------------------------
       NWT REQUIRED            4 OUTER ITERATIONS 
       AND A TOTAL OF          7 INNER ITERATIONS.
    ------------------------------------------------

 NO OUTPUT CONTROL FOR STRESS PERIOD   36   TIME STEP   23
 
 SOLVING FOR HEAD 
                                                   Max.-Head-Change                         Max.-Flux-Residual
  Residual-Control   Outer-Iter.   Inner-Iter.     Column Row Layer    Maximum-Head-Change  Column Row Layer    Maximum-Flux-Residual          L2-NORM 
          0                 1           2             4    7     1       0.2960688442E-01       4    7    1         0.1557148613E+01      0.3576163233E+01
          0                 2           2             4    7     1      -0.2878402662E-02       4    7    1        -0.1556317145E+00      0.3574793791E+00
          0                 3           2             4    7     1       0.1958609554E-03       4    7    1         0.1088600541E-01      0.2501018160E-01
          0                 4           1             4    7     1      -0.7783733197E-05       4    7    1        -0.4446798339E-03      0.1022013665E-02

    ------------------------------------------------
       NWT REQUIRED            4 OUTER ITERATIONS 
       AND A TOTAL OF          7 INNER ITERATIONS.
    ------------------------------------------------

 NO OUTPUT CONTROL FOR STRESS PERIOD   36   TIME STEP   24
 
 SOLVING FOR HEAD 
                                                   Max.-Head-Change                         Max.-Flux-Residual
  Residual-Control   Outer-Iter.   Inner-Iter.     Column Row Layer    Maximum-Head-Change  Column Row Layer    Maximum-Flux-Residual          L2-NORM 
          0                 1           2             4    7     1       0.2925289222E-01       4    7    1         0.1538310041E+01      0.3542716766E+01
          0                 2           2             4    7     1      -0.2843986810E-02       4    7    1        -0.1537488304E+00      0.3541361425E+00
          0                 3           2             4    7     1       0.1935191150E-03       4    7    1         0.1075430193E-01      0.2477628902E-01
          0                 4           1             4    7     1      -0.7690664621E-05       4    7    1        -0.4392998289E-03      0.1012456778E-02

    ------------------------------------------------
       NWT REQUIRED            4 OUTER ITERATIONS 
       AND A TOTAL OF          7 INNER ITERATIONS.
    ------------------------------------------------

 NO OUTPUT CONTROL FOR STRESS PERIOD   36   TIME STEP   25
 
 SOLVING FOR HEAD 
                                                   Max.-Head-Change                         Max.-Flux-Residual
  Residual-Control   Outer-Iter.   Inner-Iter.     Column Row Layer    Maximum-Head-Change  Column Row Layer    Maximum-Flux-Residual          L2-NORM 
          0                 1           2             4    7     1       0.2890699847E-01       4    7    1         0.1519912290E+01      0.3509826445E+01
          0                 2           2             4    7     1      -0.2810358326E-02       4    7    1        -0.1519100068E+00      0.3508484700E+00
          0                 3           2             4    7     1       0.1912308525E-03       4    7    1         0.1062568045E-01      0.2454628653E-01
          0                 4           1             4    7     1      -0.7599725559E-05       4    7    1        -0.4340457185E-03      0.1003054494E-02

    ------------------------------------------------
       NWT REQUIRED            4 OUTER ITERATIONS 
       AND A TOTAL OF          7 INNER ITERATIONS.
    ------------------------------------------------

 NO OUTPUT CONTROL FOR STRESS PERIOD   36   TIME STEP   26
 
 SOLVING FOR HEAD 
                                                   Max.-Head-Change                         Max.-Flux-Residual
  Residual-Control   Outer-Iter.   Inner-Iter.     Column Row Layer    Maximum-Head-Change  Column Row Layer    Maximum-Flux-Residual          L2-NORM 
          0                 1           2             4    7     1       0.2856909021E-01       4    7    1         0.1501949014E+01      0.3477473803E+01
          0                 2           2             4    7     1      -0.2777506225E-02       4    7    1        -0.1501146095E+00      0.3476145371E+00
          0                 3           2             4    7     1       0.1889954200E-03       4    7    1         0.1050009656E-01      0.2432004474E-01
          0                 4           1             4    7     1      -0.7510886310E-05       4    7    1        -0.4289157250E-03      0.9938137356E-03

    ------------------------------------------------
       NWT REQUIRED            4 OUTER ITERATIONS 
       AND A TOTAL OF          7 INNER ITERATIONS.
    ------------------------------------------------

 NO OUTPUT CONTROL FOR STRESS PERIOD   36   TIME STEP   27
 
 SOLVING FOR HEAD 
                                                   Max.-Head-Change                         Max.-Flux-Residual
  Residual-Control   Outer-Iter.   Inner-Iter.     Column Row Layer    Maximum-Head-Change  Column Row Layer    Maximum-Flux-Residual          L2-NORM 
          0                 1           2             4    7     1       0.2823853518E-01       4    7    1         0.1484385185E+01      0.3445648901E+01
          0                 2           2             4    7     1      -0.2745369037E-02       4    7    1        -0.1483591372E+00      0.3444334419E+00
          0                 3           2             4    7     1       0.1868086342E-03       4    7    1         0.1037730539E-01      0.2409750517E-01
          0                 4           1             4    7     1      -0.7423979939E-05       4    7    1        -0.4238997794E-03      0.9847172891E-03

    ------------------------------------------------
       NWT REQUIRED            4 OUTER ITERATIONS 
       AND A TOTAL OF          7 INNER ITERATIONS.
    ------------------------------------------------

 NO OUTPUT CONTROL FOR STRESS PERIOD   36   TIME STEP   28
 
 SOLVING FOR HEAD 
                                                   Max.-Head-Change                         Max.-Flux-Residual
  Residual-Control   Outer-Iter.   Inner-Iter.     Column Row Layer    Maximum-Head-Change  Column Row Layer    Maximum-Flux-Residual          L2-NORM 
          0                 1           2             4    7     1       0.2791526969E-01       4    7    1         0.1467217195E+01      0.3414329873E+01
          0                 2           2             4    7     1      -0.2713940567E-02       4    7    1        -0.1466432294E+00      0.3413028900E+00
          0                 3           2             4    7     1       0.1846700740E-03       4    7    1         0.1025728169E-01      0.2387850898E-01
          0                 4           1             4    7     1      -0.7338990326E-05       4    7    1        -0.4189968868E-03      0.9757765319E-03

    ------------------------------------------------
       NWT REQUIRED            4 OUTER ITERATIONS 
       AND A TOTAL OF          7 INNER ITERATIONS.
    ------------------------------------------------

 NO OUTPUT CONTROL FOR STRESS PERIOD   36   TIME STEP   29
 
 SOLVING FOR HEAD 
                                                   Max.-Head-Change                         Max.-Flux-Residual
  Residual-Control   Outer-Iter.   Inner-Iter.     Column Row Layer    Maximum-Head-Change  Column Row Layer    Maximum-Flux-Residual          L2-NORM 
          0                 1           2             4    7     1       0.2759884317E-01       4    7    1         0.1450419860E+01      0.3383516351E+01
          0                 2           2             4    7     1      -0.2683177010E-02       4    7    1        -0.1449643688E+00      0.3382228418E+00
          0                 3           2             4    7     1       0.1825767592E-03       4    7    1         0.1013984940E-01      0.2366301614E-01
          0                 4           1             4    7     1      -0.7255798777E-05       4    7    1        -0.4141998738E-03      0.9669692689E-03

    ------------------------------------------------
       NWT REQUIRED            4 OUTER ITERATIONS 
       AND A TOTAL OF          7 INNER ITERATIONS.
    ------------------------------------------------

 NO OUTPUT CONTROL FOR STRESS PERIOD   36   TIME STEP   30



 STREAM LISTING     PERIOD     36   STEP       30

 LAYER ROW COL. STREAM  RCH.  FLOW INTO     FLOW TO   FLOW OUT OF   OVRLND.     DIRECT     STREAM       STREAM     STREAM     STREAM   STREAMBED  STREAMBED
                SEG.NO.  NO.  STRM. RCH.    AQUIFER    STRM. RCH.    RUNOFF     PRECIP       ET          HEAD       DEPTH      WIDTH   CONDCTNC.   GRADIENT

   1    1    1     1     1    1.9000E+01  2.1427E-01   1.8786E+01  0.000E+00  0.000E+00  0.000E+00  1.09413E+03  1.082E+00  1.166E+01  5.249E-02  1.361E+00
   1    2    2     1     2    1.8786E+01  3.3054E-01   1.8455E+01  0.000E+00  0.000E+00  0.000E+00  1.08914E+03  1.077E+00  1.158E+01  8.107E-02  1.359E+00
   1    3    3     1     3    1.8455E+01  2.8064E-01   1.8175E+01  0.000E+00  0.000E+00  0.000E+00  1.08349E+03  1.072E+00  1.149E+01  6.892E-02  1.357E+00
   1    3    4     1     4    1.8175E+01  2.5740E-01   1.7917E+01  0.000E+00  0.000E+00  0.000E+00  1.07848E+03  1.068E+00  1.140E+01  6.328E-02  1.356E+00
   1    4    5     2     1    1.5917E+01  3.0542E-01   1.5612E+01  0.000E+00  0.000E+00  0.000E+00  1.07285E+03  9.157E-01  1.200E+01  7.800E-02  1.305E+00
   1    5    6     2     2    1.5612E+01  2.3438E-01   1.5377E+01  0.000E+00  0.000E+00  0.000E+00  1.06742E+03  9.063E-01  1.200E+01  6.000E-02  1.302E+00
   1    6    6     2     3    1.5377E+01  2.3388E-01   1.5143E+01  0.000E+00  0.000E+00  0.000E+00  1.06269E+03  8.980E-01  1.200E+01  6.000E-02  1.299E+00
   1    7    6     2     4    1.5143E+01  2.3338E-01   1.4910E+01  0.000E+00  0.000E+00  0.000E+00  1.05797E+03  8.897E-01  1.200E+01  6.000E-02  1.297E+00
   1    8    6     2     5    1.4910E+01  2.3289E-01   1.4677E+01  0.000E+00  0.000E+00  0.000E+00  1.05324E+03  8.814E-01  1.200E+01  6.000E-02  1.294E+00
   1    3    5     3     1    2.0000E+00  2.8252E-01   1.7175E+00  0.000E+00  0.000E+00  0.000E+00  1.07555E+03  1.909E+00  9.636E+00  7.227E-02  1.955E+00
   1    3    6     3     2    1.7175E+00  2.4905E-01   1.4684E+00  0.000E+00  0.000E+00  0.000E+00  1.07264E+03  1.727E+00  8.909E+00  6.682E-02  1.864E+00
   1    3    7     3     3    1.4684E+00  1.9718E-01   1.2712E+00  0.000E+00  0.000E+00  0.000E+00  1.06987E+03  1.555E+00  8.218E+00  5.547E-02  1.777E+00
   1    4    8     3     4    1.2712E+00  2.2567E-01   1.0456E+00  0.000E+00  0.000E+00  0.000E+00  1.06682E+03  1.364E+00  7.455E+00  6.709E-02  1.682E+00
   1    5    8     3     5    1.0456E+00  1.5790E-01   8.8768E-01  0.000E+00  0.000E+00  0.000E+00  1.06362E+03  1.164E+00  6.655E+00  4.991E-02  1.582E+00
   1    6    8     3     6    8.8768E-01  5.5980E-02   8.3170E-01  0.000E+00  0.000E+00  0.000E+00  1.06158E+03  1.036E+00  6.145E+00  1.844E-02  1.518E+00
   1    5   10     4     1    1.0000E+01  9.0919E-02   9.9091E+00  0.000E+00  0.000E+00  0.000E+00  1.07836E+03  6.368E-01  1.000E+01  2.500E-02  1.212E+00
   1    5    9     4     2    9.9091E+00  1.8158E-01   9.7275E+00  0.000E+00  0.000E+00  0.000E+00  1.07154E+03  6.315E-01  1.000E+01  5.000E-02  1.211E+00
   1    6    8     4     3    9.7275E+00  1.2689E-01   9.6006E+00  0.000E+00  0.000E+00  0.000E+00  1.06381E+03  6.256E-01  1.000E+01  3.500E-02  1.209E+00
   1    6    8     5     1    1.0432E+01  2.2686E-01   1.0205E+01  0.000E+00  0.000E+00  0.000E+00  1.05868E+03  6.790E-01  1.542E+01  6.166E-02  1.226E+00
   1    7    7     5     2    1.0205E+01  2.7894E-01   9.9265E+00  0.000E+00  0.000E+00  0.000E+00  1.05417E+03  6.732E-01  1.519E+01  7.594E-02  1.224E+00
   1    8    7     5     3    9.9265E+00  1.9221E-01   9.7343E+00  0.000E+00  0.000E+00  0.000E+00  1.04992E+03  6.676E-01  1.497E+01  5.241E-02  1.223E+00
   1    8    6     5     4    9.7343E+00  1.3577E-01   9.5985E+00  0.000E+00  0.000E+00  0.000E+00  1.04691E+03  6.637E-01  1.482E+01  3.706E-02  1.221E+00
   1    9    6     6     1    2.4276E+01  2.5176E-01   2.4024E+01  0.000E+00  0.000E+00  0.000E+00  1.04392E+03  1.196E+00  1.200E+01  6.000E-02  1.399E+00
   1   10    7     6     2    2.4024E+01  2.5131E-01   2.3773E+01  0.000E+00  0.000E+00  0.000E+00  1.03937E+03  1.188E+00  1.200E+01  6.000E-02  1.396E+00
   1   11    7     6     3    2.3773E+01  2.5086E-01   2.3522E+01  0.000E+00  0.000E+00  0.000E+00  1.03482E+03  1.181E+00  1.200E+01  6.000E-02  1.394E+00
   1   12    7     6     4    2.3522E+01  2.5041E-01   2.3271E+01  0.000E+00  0.000E+00  0.000E+00  1.03026E+03  1.173E+00  1.200E+01  6.000E-02  1.391E+00
   1   13    7     6     5    2.3271E+01  7.9015E-03   2.3263E+01  0.000E+00  0.000E+00  0.000E+00  1.02708E+03  1.170E+00  1.200E+01  2.400E-02  1.097E-01
   1   14    9     7     1    1.5000E+02  1.3576E+00   1.4864E+02  0.000E+00  0.000E+00  0.000E+00  1.03987E+03  2.288E+00  5.529E+01  5.593E-01  8.091E-01
   1   13    8     7     2    1.4864E+02  1.9284E+00   1.4671E+02  0.000E+00  0.000E+00  0.000E+00  1.03478E+03  2.279E+00  5.526E+01  6.148E-01  1.046E+00
   1   13    7     7     3    1.4671E+02  1.6413E+00   1.4507E+02  0.000E+00  0.000E+00  0.000E+00  1.02969E+03  2.269E+00  5.521E+01  5.584E-01  9.798E-01
   1   13    6     8     1    1.6834E+02  1.0830E+00   1.6725E+02  0.000E+00  0.000E+00  0.000E+00  1.02481E+03  2.938E+00  4.260E+01  4.341E-01  8.316E-01
   1   13    5     8     2    1.6725E+02  3.3028E-01   1.6692E+02  0.000E+00  0.000E+00  0.000E+00  1.01856E+03  2.933E+00  4.253E+01  4.334E-01  2.540E-01
   1   13    4     8     3    1.6692E+02 -1.9051E+00   1.6883E+02  0.000E+00  0.000E+00  0.000E+00  1.01231E+03  2.938E+00  4.261E+01  4.342E+00 -1.463E-01
   1   13    3     8     4    1.6883E+02 -3.3994E+00   1.7223E+02  0.000E+00  0.000E+00  0.000E+00  1.00608E+03  2.956E+00  4.286E+01  4.367E+00 -2.595E-01
   1   13    2     8     5    1.7223E+02 -2.5176E+00   1.7474E+02  0.000E+00  0.000E+00  0.000E+00  9.99850E+02  2.975E+00  4.313E+01  4.396E+00 -1.909E-01
   1   13    1     8     6    1.7474E+02 -1.9673E+00   1.7671E+02  0.000E+00  0.000E+00  0.000E+00  9.94864E+02  2.989E+00  4.334E+01  2.650E+00 -2.475E-01





UNSATURATED ZONE PACKAGE VOLUMETRIC BUDGET FOR  TIME STEP    30 STRESS PERIOD   36
  ------------------------------------------------------------------------------



     CUMULATIVE VOLUMES      L**3       RATES FOR THIS TIME STEP      L**3/T
     ------------------                 ------------------------

           IN:                                      IN:
           ---                                      ---
        INFILTRATION =  1383229449.8853          INFILTRATION =           0.8475

          OUT:                                     OUT:
          ----                                     ----
              UZF ET =  1269102520.2668                UZF ET =           0.7500
        UZF RECHARGE =   113792377.2346          UZF RECHARGE =           0.0003

            IN - OUT =      334552.3838              IN - OUT =       9.7162E-02

          STORAGE:                                 STORAGE:
          --------                                 --------
      STORAGE CHANGE =      334554.1269        STORAGE CHANGE =       9.7162E-02

 PERCENT DISCREPANCY IS DIFFERENCE BETWEEN IN-OUT MINUS CHANGE IN STORAGE
 DIVIDED BY THE AVERAGE OF IN AND OUT TIMES 100

 PERCENT DISCREPANCY =           0.00     PERCENT DISCREPANCY =           0.00






1
  VOLUMETRIC BUDGET FOR AGRICULTURAL FIELDS AT  END OF TIME STEP   30, STRESS PERIOD  36
  ------------------------------------------------------------------------------

     CUMULATIVE VOLUMES      L**3       RATES FOR THIS TIME STEP      L**3/T
     ------------------                 ------------------------

           IN:                                      IN:
           ---                                      ---
               AG WELLS  =  1305143552.0000                 AG WELLS  =           0.0000
      DIVERSION SEGMENTS =           0.0000        DIVERSION SEGMENTS =           0.0000
       IRRIGATION PONDS  =           0.0000         IRRIGATION PONDS  =           0.0000
           GW IRRIGATION =           0.0000             GW IRRIGATION =           0.0000
           SW IRRIGATION =           0.0000             SW IRRIGATION =           0.0000
        SYSTEM LOSSES GW =           0.0000          SYSTEM LOSSES GW =           0.0000
        SYSTEM LOSSES SW =           0.0000          SYSTEM LOSSES SW =           0.0000

                TOTAL IN =  1305143552.0000                  TOTAL IN =           0.0000

          OUT:                                     OUT:
          ----                                     ----
               AG WELLS  =           0.0000                 AG WELLS  =           0.0000
      DIVERSION SEGMENTS =           0.0000        DIVERSION SEGMENTS =           0.0000
       IRRIGATION PONDS  =           0.0000         IRRIGATION PONDS  =           0.0000
           GW IRRIGATION =  1305143552.0000             GW IRRIGATION =           0.0000
           SW IRRIGATION =           0.0000             SW IRRIGATION =           0.0000
        SYSTEM LOSSES GW =           0.0000          SYSTEM LOSSES GW =           0.0000
        SYSTEM LOSSES SW =           0.0000          SYSTEM LOSSES SW =           0.0000

               TOTAL OUT =  1305143552.0000                 TOTAL OUT =           0.0000

                IN - OUT =           0.0000                  IN - OUT =           0.0000

     PERCENT DISCREPANCY =           0.00         PERCENT DISCREPANCY =           0.00



1
  VOLUMETRIC BUDGET FOR ENTIRE MODEL AT END OF TIME STEP   30, STRESS PERIOD  36
  ------------------------------------------------------------------------------

     CUMULATIVE VOLUMES      L**3       RATES FOR THIS TIME STEP      L**3/T
     ------------------                 ------------------------

           IN:                                      IN:
           ---                                      ---
             STORAGE     =  1708632192.0000               STORAGE     =           8.8808
       CONSTANT HEAD     =           0.0000         CONSTANT HEAD     =           0.0000
     HEAD DEP BOUNDS     =    26333078.0000       HEAD DEP BOUNDS     =           0.2872
      STREAM LEAKAGE     =  1129019904.0000        STREAM LEAKAGE     =          12.0771
        UZF RECHARGE     =   113792424.0000          UZF RECHARGE     =       3.3817E-04
               GW ET     =           0.0000                 GW ET     =           0.0000
     SURFACE LEAKAGE     =           0.0000       SURFACE LEAKAGE     =           0.0000
           AG WELLS      =           0.0000             AG WELLS      =           0.0000

                TOTAL IN =  2977777664.0000                  TOTAL IN =          21.2455

          OUT:                                     OUT:
          ----                                     ----
             STORAGE     =   682382848.0000               STORAGE     =          11.1671
       CONSTANT HEAD     =           0.0000         CONSTANT HEAD     =           0.0000
     HEAD DEP BOUNDS     =    26952972.0000       HEAD DEP BOUNDS     =           0.2890
      STREAM LEAKAGE     =   945693696.0000        STREAM LEAKAGE     =           9.7894
        UZF RECHARGE     =           0.0000          UZF RECHARGE     =           0.0000
               GW ET     =    17607784.0000                 GW ET     =           0.0000
     SURFACE LEAKAGE     =           0.0000       SURFACE LEAKAGE     =           0.0000
           AG WELLS      =  1305143552.0000             AG WELLS      =           0.0000

               TOTAL OUT =  2977780736.0000                 TOTAL OUT =          21.2455

                IN - OUT =       -3072.0000                  IN - OUT =       1.1444E-05

     PERCENT DISCREPANCY =          -0.00         PERCENT DISCREPANCY =           0.00






         TIME SUMMARY AT END OF TIME STEP   30 IN STRESS PERIOD   36
                    SECONDS     MINUTES      HOURS       DAYS        YEARS
                    -----------------------------------------------------------
   TIME STEP LENGTH  87667.      1461.1      24.352      1.0147     2.77799E-03
 STRESS PERIOD TIME 2.63000E+06  43833.      730.56      30.440     8.33397E-02
         TOTAL TIME 9.21360E+07 1.53560E+06  25593.      1066.4      2.9196    
1
1
                            STRESS PERIOD NO.   37, LENGTH =   2630000.    
                            -----------------------------------------------

                              NUMBER OF TIME STEPS =    30

                               MULTIPLIER FOR DELT =     1.000

                            INITIAL TIME STEP SIZE =   87666.66    

 REUSING NON-PARAMETER GHB CELLS FROM LAST STRESS PERIOD

      2 GHB CELLS

 REUSING STREAM SEGMENT DATA FROM LAST STRESS PERIOD



            AREAL INFILTRATION RATE
 READING ON UNIT   19 WITH FORMAT: (FREE)              

            1           2           3           4           5           6           7           8           9          10
 ........................................................................................................................
   1   1.0000E-10  2.0000E-10   0.000       0.000       0.000       0.000       0.000       0.000       0.000       0.000    
   2   2.0000E-10  1.0000E-10  2.0000E-10   0.000       0.000      8.0000E-10  8.0000E-10  5.0000E-10   0.000       0.000    
   3    0.000      5.0000E-10  1.0000E-10  1.0000E-10  8.0000E-10  8.0000E-10  5.0000E-10  5.0000E-10   0.000       0.000    
   4   8.0000E-10  5.0000E-10  1.0000E-10  1.0000E-10  1.0000E-10  1.0000E-10  1.0000E-10  1.0000E-10  2.0000E-10   0.000    
   5   8.0000E-10  5.0000E-10  1.0000E-10  1.0000E-10  1.0000E-10  1.0000E-10  1.0000E-10  1.0000E-10  1.0000E-10  1.0000E-10
   6   8.0000E-10  5.0000E-10  5.0000E-10  2.0000E-10  2.0000E-10  1.0000E-10  1.0000E-10  1.0000E-10  1.0000E-10  5.0000E-10
   7   8.0000E-10  5.0000E-10  5.0000E-10  2.0000E-10  2.0000E-10  1.0000E-10  1.0000E-10  2.0000E-10  2.0000E-10   0.000    
   8    0.000      5.0000E-10  5.0000E-10  2.0000E-10  2.0000E-10  1.0000E-10  1.0000E-10  2.0000E-10  5.0000E-10   0.000    
   9    0.000      5.0000E-10  5.0000E-10  2.0000E-10  2.0000E-10  1.0000E-10  1.0000E-10  2.0000E-10  5.0000E-10   0.000    
  10    0.000      5.0000E-10  5.0000E-10  2.0000E-10  2.0000E-10  1.0000E-10  1.0000E-10  2.0000E-10  5.0000E-10  8.0000E-10
  11    0.000      1.0000E-10  1.0000E-10  1.0000E-10  1.0000E-10  1.0000E-10  1.0000E-10  2.0000E-10  5.0000E-10   0.000    
  12   1.0000E-10  1.0000E-10  1.0000E-10  1.0000E-10  1.0000E-10  1.0000E-10  1.0000E-10  1.0000E-10  2.0000E-10   0.000    
  13   1.0000E-10  1.0000E-10  2.0000E-10  2.0000E-10  2.0000E-10  2.0000E-10  2.0000E-10  1.0000E-10  1.0000E-10   0.000    
  14    0.000      2.0000E-10  5.0000E-10  5.0000E-10  5.0000E-10  5.0000E-10  5.0000E-10  2.0000E-10  1.0000E-10   0.000    
  15    0.000       0.000      8.0000E-10  8.0000E-10  8.0000E-10  8.0000E-10   0.000       0.000       0.000       0.000    

                  ET RATE =  5.000000E-10

 USING ET EXTINCTION DEPTH FROM PREVIOUS STRESS PERIOD. CURRENT PERIOD IS:      37

 USING EXTINCTION WATER CONTENT FROM PREVIOUS STRESS PERIOD. CURRENT PERIOD IS:      37

 USING AIR ENTRY PRESSURE FROM PREVIOUS STRESS PERIOD. CURRENT PERIOD IS:      37

 USING ROOT PRESSURE HEAD FROM PREVIOUS STRESS PERIOD. CURRENT PERIOD IS:      37

 USING ROOT ACTIVITY FROM PREVIOUS STRESS PERIOD. CURRENT PERIOD IS:      37

 PROCESSING AG STRESS PERIOD DATA

 READING AG STRESS PERIOD DATA

 READING IRRIGATION WELL

 NO IRRPOND OR REUSING IRRPOND DATA FROM LAST STRESS PERIOD

 END PROCESSING AG STRESS PERIOD DATA OPTIONS
 
 SOLVING FOR HEAD 
                                                   Max.-Head-Change                         Max.-Flux-Residual
  Residual-Control   Outer-Iter.   Inner-Iter.     Column Row Layer    Maximum-Head-Change  Column Row Layer    Maximum-Flux-Residual          L2-NORM 
          0                 1           2             4    7     1       0.2728896331E-01       4    7    1         0.1433977112E+01      0.3353184864E+01
          0                 2           2             4    7     1      -0.2653049945E-02       4    7    1        -0.1433209495E+00      0.3351910088E+00
          0                 3           2             4    7     1       0.1805267546E-03       4    7    1         0.1002489615E-01      0.2345092802E-01
          0                 4           1             4    7     1      -0.7174328961E-05       4    7    1        -0.4095041354E-03      0.9583028453E-03

    ------------------------------------------------
       NWT REQUIRED            4 OUTER ITERATIONS 
       AND A TOTAL OF          7 INNER ITERATIONS.
    ------------------------------------------------

 NO OUTPUT CONTROL FOR STRESS PERIOD   37   TIME STEP    1
 
 SOLVING FOR HEAD 
                                                   Max.-Head-Change                         Max.-Flux-Residual
  Residual-Control   Outer-Iter.   Inner-Iter.     Column Row Layer    Maximum-Head-Change  Column Row Layer    Maximum-Flux-Residual          L2-NORM 
          0                 1           2             4    7     1       0.2698535364E-01       4    7    1         0.1417873797E+01      0.3323321852E+01
          0                 2           2             4    7     1      -0.2623532675E-02       4    7    1        -0.1417114565E+00      0.3321937829E+00
          0                 3           2             4    7     1       0.1785184271E-03       4    7    1         0.9912316006E-02      0.2324592445E-01
          0                 4           1             4    7     1      -0.7094515255E-05       4    7    1        -0.4049053296E-03      0.9499201442E-03

    ------------------------------------------------
       NWT REQUIRED            4 OUTER ITERATIONS 
       AND A TOTAL OF          7 INNER ITERATIONS.
    ------------------------------------------------

 NO OUTPUT CONTROL FOR STRESS PERIOD   37   TIME STEP    2
 
 SOLVING FOR HEAD 
                                                   Max.-Head-Change                         Max.-Flux-Residual
  Residual-Control   Outer-Iter.   Inner-Iter.     Column Row Layer    Maximum-Head-Change  Column Row Layer    Maximum-Flux-Residual          L2-NORM 
          0                 1           2             4    7     1       0.2668789105E-01       4    7    1         0.1402102875E+01      0.3293926177E+01
          0                 2           2             4    7     1      -0.2594608494E-02       4    7    1        -0.1401351865E+00      0.3291716044E+00
          0                 3           2             4    7     1       0.1765500917E-03       4    7    1         0.9802059791E-02      0.2302983264E-01
          0                 4           1             4    7     1      -0.7016290771E-05       4    7    1        -0.4004014395E-03      0.9410899070E-03

    ------------------------------------------------
       NWT REQUIRED            4 OUTER ITERATIONS 
       AND A TOTAL OF          7 INNER ITERATIONS.
    ------------------------------------------------

 NO OUTPUT CONTROL FOR STRESS PERIOD   37   TIME STEP    3
 
 SOLVING FOR HEAD 
                                                   Max.-Head-Change                         Max.-Flux-Residual
  Residual-Control   Outer-Iter.   Inner-Iter.     Column Row Layer    Maximum-Head-Change  Column Row Layer    Maximum-Flux-Residual          L2-NORM 
          0                 1           2             4    7     1       0.2639634490E-01       4    7    1         0.1386650891E+01      0.3265086388E+01
          0                 2           2             4    7     1      -0.2566268089E-02       4    7    1        -0.1385907943E+00      0.3263850367E+00
          0                 3           2             4    7     1       0.1746216621E-03       4    7    1         0.9694033342E-02      0.2283488429E-01
          0                 4           1             4    7     1      -0.6939652285E-05       4    7    1        -0.3959886581E-03      0.9331271474E-03

    ------------------------------------------------
       NWT REQUIRED            4 OUTER ITERATIONS 
       AND A TOTAL OF          7 INNER ITERATIONS.
    ------------------------------------------------

 NO OUTPUT CONTROL FOR STRESS PERIOD   37   TIME STEP    4
 
 SOLVING FOR HEAD 
                                                   Max.-Head-Change                         Max.-Flux-Residual
  Residual-Control   Outer-Iter.   Inner-Iter.     Column Row Layer    Maximum-Head-Change  Column Row Layer    Maximum-Flux-Residual          L2-NORM 
          0                 1           2             4    7     1       0.2611034127E-01       4    7    1         0.1371497921E+01      0.3236680999E+01
          0                 2           2             4    7     1      -0.2538462358E-02       4    7    1        -0.1370762885E+00      0.3235457218E+00
          0                 3           2             4    7     1       0.1727296147E-03       4    7    1         0.9588097405E-02      0.2263624425E-01
          0                 4           1             4    7     1      -0.6864459686E-05       4    7    1        -0.3916612700E-03      0.9250103767E-03

    ------------------------------------------------
       NWT REQUIRED            4 OUTER ITERATIONS 
       AND A TOTAL OF          7 INNER ITERATIONS.
    ------------------------------------------------

 NO OUTPUT CONTROL FOR STRESS PERIOD   37   TIME STEP    5
 
 SOLVING FOR HEAD 
                                                   Max.-Head-Change                         Max.-Flux-Residual
  Residual-Control   Outer-Iter.   Inner-Iter.     Column Row Layer    Maximum-Head-Change  Column Row Layer    Maximum-Flux-Residual          L2-NORM 
          0                 1           2             4    7     1       0.2582980646E-01       4    7    1         0.1356639839E+01      0.3208704705E+01
          0                 2           2             4    7     1      -0.2511188382E-02       4    7    1        -0.1355912570E+00      0.3207493623E+00
          0                 3           2             4    7     1       0.1708737512E-03       4    7    1         0.9484223122E-02      0.2244061130E-01
          0                 4           1             4    7     1      -0.6790704916E-05       4    7    1        -0.3874180870E-03      0.9170156090E-03

    ------------------------------------------------
       NWT REQUIRED            4 OUTER ITERATIONS 
       AND A TOTAL OF          7 INNER ITERATIONS.
    ------------------------------------------------

 NO OUTPUT CONTROL FOR STRESS PERIOD   37   TIME STEP    6
 
 SOLVING FOR HEAD 
                                                   Max.-Head-Change                         Max.-Flux-Residual
  Residual-Control   Outer-Iter.   Inner-Iter.     Column Row Layer    Maximum-Head-Change  Column Row Layer    Maximum-Flux-Residual          L2-NORM 
          0                 1           2             4    7     1       0.2555453642E-01       4    7    1         0.1342065304E+01      0.3181138841E+01
          0                 2           2             4    7     1      -0.2484426207E-02       4    7    1        -0.1341345658E+00      0.3179939932E+00
          0                 3           2             4    7     1       0.1690527138E-03       4    7    1         0.9382331236E-02      0.2224786584E-01
          0                 4           1             4    7     1      -0.6718334324E-05       4    7    1        -0.3832558778E-03      0.9091403247E-03

    ------------------------------------------------
       NWT REQUIRED            4 OUTER ITERATIONS 
       AND A TOTAL OF          7 INNER ITERATIONS.
    ------------------------------------------------

 NO OUTPUT CONTROL FOR STRESS PERIOD   37   TIME STEP    7
 
 SOLVING FOR HEAD 
                                                   Max.-Head-Change                         Max.-Flux-Residual
  Residual-Control   Outer-Iter.   Inner-Iter.     Column Row Layer    Maximum-Head-Change  Column Row Layer    Maximum-Flux-Residual          L2-NORM 
          0                 1           2             4    7     1       0.2528420509E-01       4    7    1         0.1327756441E+01      0.3153978384E+01
          0                 2           2             4    7     1      -0.2458144189E-02       4    7    1        -0.1327044286E+00      0.3152791487E+00
          0                 3           2             4    7     1       0.1672643491E-03       4    7    1         0.9282296714E-02      0.2205795431E-01
          0                 4           1             4    7     1      -0.6647262488E-05       4    7    1        -0.3791695731E-03      0.9014122222E-03

    ------------------------------------------------
       NWT REQUIRED            4 OUTER ITERATIONS 
       AND A TOTAL OF          7 INNER ITERATIONS.
    ------------------------------------------------

 NO OUTPUT CONTROL FOR STRESS PERIOD   37   TIME STEP    8
 
 SOLVING FOR HEAD 
                                                   Max.-Head-Change                         Max.-Flux-Residual
  Residual-Control   Outer-Iter.   Inner-Iter.     Column Row Layer    Maximum-Head-Change  Column Row Layer    Maximum-Flux-Residual          L2-NORM 
          0                 1           2             4    7     1       0.2501890901E-01       4    7    1         0.1313718238E+01      0.3127213517E+01
          0                 2           2             4    7     1      -0.2432351714E-02       4    7    1        -0.1313013437E+00      0.3126038321E+00
          0                 3           2             4    7     1       0.1655092958E-03       4    7    1         0.9184154479E-02      0.2187078812E-01
          0                 4           1             4    7     1      -0.6577514158E-05       4    7    1        -0.3751605441E-03      0.8937312605E-03

    ------------------------------------------------
       NWT REQUIRED            4 OUTER ITERATIONS 
       AND A TOTAL OF          7 INNER ITERATIONS.
    ------------------------------------------------

 NO OUTPUT CONTROL FOR STRESS PERIOD   37   TIME STEP    9
 
 SOLVING FOR HEAD 
                                                   Max.-Head-Change                         Max.-Flux-Residual
  Residual-Control   Outer-Iter.   Inner-Iter.     Column Row Layer    Maximum-Head-Change  Column Row Layer    Maximum-Flux-Residual          L2-NORM 
          0                 1           2             4    7     1       0.2475833671E-01       4    7    1         0.1299933806E+01      0.3100845643E+01
          0                 2           2             4    7     1      -0.2407018500E-02       4    7    1        -0.1299236232E+00      0.3099681892E+00
          0                 3           2             4    7     1       0.1637854933E-03       4    7    1         0.9087786425E-02      0.2168640369E-01
          0                 4           1             4    7     1      -0.6509008055E-05       4    7    1        -0.3712240004E-03      0.8861975500E-03

    ------------------------------------------------
       NWT REQUIRED            4 OUTER ITERATIONS 
       AND A TOTAL OF          7 INNER ITERATIONS.
    ------------------------------------------------

 NO OUTPUT CONTROL FOR STRESS PERIOD   37   TIME STEP   10
 
 SOLVING FOR HEAD 
                                                   Max.-Head-Change                         Max.-Flux-Residual
  Residual-Control   Outer-Iter.   Inner-Iter.     Column Row Layer    Maximum-Head-Change  Column Row Layer    Maximum-Flux-Residual          L2-NORM 
          0                 1           2             4    7     1       0.2450219160E-01       4    7    1         0.1286386992E+01      0.3074852872E+01
          0                 2           2             4    7     1      -0.2382115712E-02       4    7    1        -0.1285696525E+00      0.3073700771E+00
          0                 3           2             4    7     1       0.1620909798E-03       4    7    1         0.8993079638E-02      0.2150464240E-01
          0                 4           1             4    7     1      -0.6441666122E-05       4    7    1        -0.3673553319E-03      0.8787710808E-03

    ------------------------------------------------
       NWT REQUIRED            4 OUTER ITERATIONS 
       AND A TOTAL OF          7 INNER ITERATIONS.
    ------------------------------------------------

 NO OUTPUT CONTROL FOR STRESS PERIOD   37   TIME STEP   11
 
 SOLVING FOR HEAD 
                                                   Max.-Head-Change                         Max.-Flux-Residual
  Residual-Control   Outer-Iter.   Inner-Iter.     Column Row Layer    Maximum-Head-Change  Column Row Layer    Maximum-Flux-Residual          L2-NORM 
          0                 1           2             4    7     1       0.2425059507E-01       4    7    1         0.1273084320E+01      0.3049234038E+01
          0                 2           2             4    7     1      -0.2357655149E-02       4    7    1        -0.1272400836E+00      0.3048093441E+00
          0                 3           2             4    7     1       0.1604265571E-03       4    7    1         0.8900079695E-02      0.2132552710E-01
          0                 4           1             4    7     1      -0.6375519560E-05       4    7    1        -0.3635563635E-03      0.8714592165E-03

    ------------------------------------------------
       NWT REQUIRED            4 OUTER ITERATIONS 
       AND A TOTAL OF          7 INNER ITERATIONS.
    ------------------------------------------------

 NO OUTPUT CONTROL FOR STRESS PERIOD   37   TIME STEP   12
 
 SOLVING FOR HEAD 
                                                   Max.-Head-Change                         Max.-Flux-Residual
  Residual-Control   Outer-Iter.   Inner-Iter.     Column Row Layer    Maximum-Head-Change  Column Row Layer    Maximum-Flux-Residual          L2-NORM 
          0                 1           2             4    7     1       0.2400339632E-01       4    7    1         0.1260017482E+01      0.3023982254E+01
          0                 2           2             4    7     1      -0.2333622152E-02       4    7    1        -0.1259340863E+00      0.3022852948E+00
          0                 3           2             4    7     1       0.1587912288E-03       4    7    1         0.8808728539E-02      0.2114894735E-01
          0                 4           1             4    7     1      -0.6310529914E-05       4    7    1        -0.3598247649E-03      0.8642514554E-03

    ------------------------------------------------
       NWT REQUIRED            4 OUTER ITERATIONS 
       AND A TOTAL OF          7 INNER ITERATIONS.
    ------------------------------------------------

 NO OUTPUT CONTROL FOR STRESS PERIOD   37   TIME STEP   13
 
 SOLVING FOR HEAD 
                                                   Max.-Head-Change                         Max.-Flux-Residual
  Residual-Control   Outer-Iter.   Inner-Iter.     Column Row Layer    Maximum-Head-Change  Column Row Layer    Maximum-Flux-Residual          L2-NORM 
          0                 1           2             4    7     1       0.2376018476E-01       4    7    1         0.1247164061E+01      0.2999082654E+01
          0                 2           2             4    7     1      -0.2309976801E-02       4    7    1        -0.1246494199E+00      0.2997964370E+00
          0                 3           2             4    7     1       0.1571822780E-03       4    7    1         0.8718869438E-02      0.2097484493E-01
          0                 4           1             4    7     1      -0.6246587930E-05       4    7    1        -0.3561541102E-03      0.8571478388E-03

    ------------------------------------------------
       NWT REQUIRED            4 OUTER ITERATIONS 
       AND A TOTAL OF          7 INNER ITERATIONS.
    ------------------------------------------------

 NO OUTPUT CONTROL FOR STRESS PERIOD   37   TIME STEP   14
 
 SOLVING FOR HEAD 
                                                   Max.-Head-Change                         Max.-Flux-Residual
  Residual-Control   Outer-Iter.   Inner-Iter.     Column Row Layer    Maximum-Head-Change  Column Row Layer    Maximum-Flux-Residual          L2-NORM 
          0                 1           2             4    7     1       0.2352110442E-01       4    7    1         0.1234531970E+01      0.2974537948E+01
          0                 2           2             4    7     1      -0.2286733099E-02       4    7    1        -0.1233868751E+00      0.2973430797E+00
          0                 3           2             4    7     1       0.1556006578E-03       4    7    1         0.8630557711E-02      0.2080323397E-01
          0                 4           1             4    7     1      -0.6183732520E-05       4    7    1        -0.3525466664E-03      0.8501269083E-03

    ------------------------------------------------
       NWT REQUIRED            4 OUTER ITERATIONS 
       AND A TOTAL OF          7 INNER ITERATIONS.
    ------------------------------------------------

 NO OUTPUT CONTROL FOR STRESS PERIOD   37   TIME STEP   15
 
 SOLVING FOR HEAD 
                                                   Max.-Head-Change                         Max.-Flux-Residual
  Residual-Control   Outer-Iter.   Inner-Iter.     Column Row Layer    Maximum-Head-Change  Column Row Layer    Maximum-Flux-Residual          L2-NORM 
          0                 1           2             4    7     1       0.2328589160E-01       4    7    1         0.1222106773E+01      0.2950331520E+01
          0                 2           2             4    7     1      -0.2263865408E-02       4    7    1        -0.1221450094E+00      0.2949234984E+00
          0                 3           2             4    7     1       0.1540446234E-03       4    7    1         0.8543692426E-02      0.2063393404E-01
          0                 4           1             4    7     1      -0.6121893801E-05       4    7    1        -0.3489983155E-03      0.8431884967E-03

    ------------------------------------------------
       NWT REQUIRED            4 OUTER ITERATIONS 
       AND A TOTAL OF          7 INNER ITERATIONS.
    ------------------------------------------------

 NO OUTPUT CONTROL FOR STRESS PERIOD   37   TIME STEP   16
 
 SOLVING FOR HEAD 
                                                   Max.-Head-Change                         Max.-Flux-Residual
  Residual-Control   Outer-Iter.   Inner-Iter.     Column Row Layer    Maximum-Head-Change  Column Row Layer    Maximum-Flux-Residual          L2-NORM 
          0                 1           2             4    7     1       0.2305456738E-01       4    7    1         0.1209889401E+01      0.2926470290E+01
          0                 2           2             4    7     1      -0.2241375777E-02       4    7    1        -0.1209239155E+00      0.2925384477E+00
          0                 3           2             4    7     1       0.1525143141E-03       4    7    1         0.8458280110E-02      0.2046708979E-01
          0                 4           1             4    7     1      -0.6061077301E-05       4    7    1        -0.3455092919E-03      0.8363848343E-03

    ------------------------------------------------
       NWT REQUIRED            4 OUTER ITERATIONS 
       AND A TOTAL OF          7 INNER ITERATIONS.
    ------------------------------------------------

 NO OUTPUT CONTROL FOR STRESS PERIOD   37   TIME STEP   17
 
 SOLVING FOR HEAD 
                                                   Max.-Head-Change                         Max.-Flux-Residual
  Residual-Control   Outer-Iter.   Inner-Iter.     Column Row Layer    Maximum-Head-Change  Column Row Layer    Maximum-Flux-Residual          L2-NORM 
          0                 1           2             4    7     1       0.2282701172E-01       4    7    1         0.1197873647E+01      0.2902937413E+01
          0                 2           2             4    7     1      -0.2219252535E-02       4    7    1        -0.1197229731E+00      0.2901862359E+00
          0                 3           2             4    7     1       0.1510089362E-03       4    7    1         0.8374277334E-02      0.2030254541E-01
          0                 4           1             4    7     1      -0.6001251934E-05       4    7    1        -0.3420778762E-03      0.8296632190E-03

    ------------------------------------------------
       NWT REQUIRED            4 OUTER ITERATIONS 
       AND A TOTAL OF          7 INNER ITERATIONS.
    ------------------------------------------------

 NO OUTPUT CONTROL FOR STRESS PERIOD   37   TIME STEP   18
 
 SOLVING FOR HEAD 
                                                   Max.-Head-Change                         Max.-Flux-Residual
  Residual-Control   Outer-Iter.   Inner-Iter.     Column Row Layer    Maximum-Head-Change  Column Row Layer    Maximum-Flux-Residual          L2-NORM 
          0                 1           2             4    7     1       0.2260298166E-01       4    7    1         0.1186045983E+01      0.2879727740E+01
          0                 2           2             4    7     1      -0.2197472062E-02       4    7    1        -0.1185408302E+00      0.2878662965E+00
          0                 3           2             4    7     1       0.1495268819E-03       4    7    1         0.8291589540E-02      0.2014025398E-01
          0                 4           1             4    7     1      -0.5942353230E-05       4    7    1        -0.3387001607E-03      0.8230218210E-03

    ------------------------------------------------
       NWT REQUIRED            4 OUTER ITERATIONS 
       AND A TOTAL OF          7 INNER ITERATIONS.
    ------------------------------------------------

 NO OUTPUT CONTROL FOR STRESS PERIOD   37   TIME STEP   19
 
 SOLVING FOR HEAD 
                                                   Max.-Head-Change                         Max.-Flux-Residual
  Residual-Control   Outer-Iter.   Inner-Iter.     Column Row Layer    Maximum-Head-Change  Column Row Layer    Maximum-Flux-Residual          L2-NORM 
          0                 1           2             4    7     1       0.2238237772E-01       4    7    1         0.1174401114E+01      0.2856831687E+01
          0                 2           2             4    7     1      -0.2176024683E-02       4    7    1        -0.1173769575E+00      0.2855777444E+00
          0                 3           2             4    7     1       0.1480674930E-03       4    7    1         0.8210179697E-02      0.1998024726E-01
          0                 4           1             4    7     1      -0.5884355053E-05       4    7    1        -0.3353746420E-03      0.8169583067E-03

    ------------------------------------------------
       NWT REQUIRED            4 OUTER ITERATIONS 
       AND A TOTAL OF          7 INNER ITERATIONS.
    ------------------------------------------------

 NO OUTPUT CONTROL FOR STRESS PERIOD   37   TIME STEP   20
 
 SOLVING FOR HEAD 
                                                   Max.-Head-Change                         Max.-Flux-Residual
  Residual-Control   Outer-Iter.   Inner-Iter.     Column Row Layer    Maximum-Head-Change  Column Row Layer    Maximum-Flux-Residual          L2-NORM 
          0                 1           2             4    7     1       0.2216537192E-01       4    7    1         0.1162948489E+01      0.2834250686E+01
          0                 2           2             4    7     1      -0.2154927633E-02       4    7    1        -0.1162322993E+00      0.2833572945E+00
          0                 3           2             4    7     1       0.1466319430E-03       4    7    1         0.8130113892E-02      0.1982482101E-01
          0                 4           1             4    7     1      -0.5827304607E-05       4    7    1        -0.3321040435E-03      0.8101386311E-03

    ------------------------------------------------
       NWT REQUIRED            4 OUTER ITERATIONS 
       AND A TOTAL OF          7 INNER ITERATIONS.
    ------------------------------------------------

 NO OUTPUT CONTROL FOR STRESS PERIOD   37   TIME STEP   21
 
 SOLVING FOR HEAD 
                                                   Max.-Head-Change                         Max.-Flux-Residual
  Residual-Control   Outer-Iter.   Inner-Iter.     Column Row Layer    Maximum-Head-Change  Column Row Layer    Maximum-Flux-Residual          L2-NORM 
          0                 1           2             4    7     1       0.2195159120E-01       4    7    1         0.1151667787E+01      0.2811947332E+01
          0                 2           2             4    7     1      -0.2134143117E-02       4    7    1        -0.1151048246E+00      0.2810913390E+00
          0                 3           2             4    7     1       0.1452176596E-03       4    7    1         0.8051250030E-02      0.1966630285E-01
          0                 4           1             4    7     1      -0.5771099658E-05       4    7    1        -0.3288825642E-03      0.8036664592E-03

    ------------------------------------------------
       NWT REQUIRED            4 OUTER ITERATIONS 
       AND A TOTAL OF          7 INNER ITERATIONS.
    ------------------------------------------------

 NO OUTPUT CONTROL FOR STRESS PERIOD   37   TIME STEP   22
 
 SOLVING FOR HEAD 
                                                   Max.-Head-Change                         Max.-Flux-Residual
  Residual-Control   Outer-Iter.   Inner-Iter.     Column Row Layer    Maximum-Head-Change  Column Row Layer    Maximum-Flux-Residual          L2-NORM 
          0                 1           2             4    7     1       0.2174108512E-01       4    7    1         0.1140561657E+01      0.2789915572E+01
          0                 2           2             4    7     1      -0.2113677479E-02       4    7    1        -0.1139947982E+00      0.2788891635E+00
          0                 3           2             4    7     1       0.1438250739E-03       4    7    1         0.7973606637E-02      0.1951225207E-01
          0                 4           1             4    7     1      -0.5715756669E-05       4    7    1        -0.3257109111E-03      0.7973730886E-03

    ------------------------------------------------
       NWT REQUIRED            4 OUTER ITERATIONS 
       AND A TOTAL OF          7 INNER ITERATIONS.
    ------------------------------------------------

 NO OUTPUT CONTROL FOR STRESS PERIOD   37   TIME STEP   23
 
 SOLVING FOR HEAD 
                                                   Max.-Head-Change                         Max.-Flux-Residual
  Residual-Control   Outer-Iter.   Inner-Iter.     Column Row Layer    Maximum-Head-Change  Column Row Layer    Maximum-Flux-Residual          L2-NORM 
          0                 1           2             4    7     1       0.2153376958E-01       4    7    1         0.1129625285E+01      0.2768186831E+01
          0                 2           2             4    7     1      -0.2093522030E-02       4    7    1        -0.1129017388E+00      0.2767172867E+00
          0                 3           2             4    7     1       0.1424535948E-03       4    7    1         0.7897150033E-02      0.1936032333E-01
          0                 4           1             4    7     1      -0.5661252270E-05       4    7    1        -0.3225877276E-03      0.7911636618E-03

    ------------------------------------------------
       NWT REQUIRED            4 OUTER ITERATIONS 
       AND A TOTAL OF          7 INNER ITERATIONS.
    ------------------------------------------------

 NO OUTPUT CONTROL FOR STRESS PERIOD   37   TIME STEP   24
 
 SOLVING FOR HEAD 
                                                   Max.-Head-Change                         Max.-Flux-Residual
  Residual-Control   Outer-Iter.   Inner-Iter.     Column Row Layer    Maximum-Head-Change  Column Row Layer    Maximum-Flux-Residual          L2-NORM 
          0                 1           2             4    7     1       0.2132941897E-01       4    7    1         0.1118847031E+01      0.2746746171E+01
          0                 2           2             4    7     1      -0.2073654840E-02       4    7    1        -0.1118244832E+00      0.2745741836E+00
          0                 3           2             4    7     1       0.1411017309E-03       4    7    1         0.7821798885E-02      0.1921039963E-01
          0                 4           1             4    7     1      -0.5607527514E-05       4    7    1        -0.3195097183E-03      0.7850456748E-03

    ------------------------------------------------
       NWT REQUIRED            4 OUTER ITERATIONS 
       AND A TOTAL OF          7 INNER ITERATIONS.
    ------------------------------------------------

 NO OUTPUT CONTROL FOR STRESS PERIOD   37   TIME STEP   25
 
 SOLVING FOR HEAD 
                                                   Max.-Head-Change                         Max.-Flux-Residual
  Residual-Control   Outer-Iter.   Inner-Iter.     Column Row Layer    Maximum-Head-Change  Column Row Layer    Maximum-Flux-Residual          L2-NORM 
          0                 1           2             4    7     1       0.2112822938E-01       4    7    1         0.1108237113E+01      0.2725590674E+01
          0                 2           2             4    7     1      -0.2054094971E-02       4    7    1        -0.1107640525E+00      0.2724596050E+00
          0                 3           2             4    7     1       0.1397707784E-03       4    7    1         0.7747624578E-02      0.1906247177E-01
          0                 4           1             4    7     1      -0.5554633980E-05       4    7    1        -0.3164797804E-03      0.7789969092E-03

    ------------------------------------------------
       NWT REQUIRED            4 OUTER ITERATIONS 
       AND A TOTAL OF          7 INNER ITERATIONS.
    ------------------------------------------------

 NO OUTPUT CONTROL FOR STRESS PERIOD   37   TIME STEP   26
 
 SOLVING FOR HEAD 
                                                   Max.-Head-Change                         Max.-Flux-Residual
  Residual-Control   Outer-Iter.   Inner-Iter.     Column Row Layer    Maximum-Head-Change  Column Row Layer    Maximum-Flux-Residual          L2-NORM 
          0                 1           2             4    7     1       0.2092998473E-01       4    7    1         0.1097783783E+01      0.2704717261E+01
          0                 2           2             4    7     1      -0.2034821415E-02       4    7    1        -0.1097192725E+00      0.2703732100E+00
          0                 3           2             4    7     1       0.1384593086E-03       4    7    1         0.7674545026E-02      0.1891651474E-01
          0                 4           1             4    7     1      -0.5502514449E-05       4    7    1        -0.3134945582E-03      0.7730352087E-03

    ------------------------------------------------
       NWT REQUIRED            4 OUTER ITERATIONS 
       AND A TOTAL OF          7 INNER ITERATIONS.
    ------------------------------------------------

 NO OUTPUT CONTROL FOR STRESS PERIOD   37   TIME STEP   27
 
 SOLVING FOR HEAD 
                                                   Max.-Head-Change                         Max.-Flux-Residual
  Residual-Control   Outer-Iter.   Inner-Iter.     Column Row Layer    Maximum-Head-Change  Column Row Layer    Maximum-Flux-Residual          L2-NORM 
          0                 1           2             4    7     1       0.2073460925E-01       4    7    1         0.1087483143E+01      0.2684121459E+01
          0                 2           2             4    7     1      -0.2015826806E-02       4    7    1        -0.1086897537E+00      0.2683146016E+00
          0                 3           2             4    7     1       0.1371668196E-03       4    7    1         0.7602532940E-02      0.1877250234E-01
          0                 4           1             4    7     1      -0.5451149465E-05       4    7    1        -0.3105529486E-03      0.7671557242E-03

    ------------------------------------------------
       NWT REQUIRED            4 OUTER ITERATIONS 
       AND A TOTAL OF          7 INNER ITERATIONS.
    ------------------------------------------------

 NO OUTPUT CONTROL FOR STRESS PERIOD   37   TIME STEP   28
 
 SOLVING FOR HEAD 
                                                   Max.-Head-Change                         Max.-Flux-Residual
  Residual-Control   Outer-Iter.   Inner-Iter.     Column Row Layer    Maximum-Head-Change  Column Row Layer    Maximum-Flux-Residual          L2-NORM 
          0                 1           2             4    7     1       0.2054190071E-01       4    7    1         0.1077323958E+01      0.2663793026E+01
          0                 2           2             4    7     1      -0.1997122050E-02       4    7    1        -0.1076743730E+00      0.2663253304E+00
          0                 3           2             4    7     1       0.1358940530E-03       4    7    1         0.7531509731E-02      0.1863334954E-01
          0                 4           1             4    7     1      -0.5400568268E-05       4    7    1        -0.3076517169E-03      0.7614663442E-03

    ------------------------------------------------
       NWT REQUIRED            4 OUTER ITERATIONS 
       AND A TOTAL OF          7 INNER ITERATIONS.
    ------------------------------------------------

 NO OUTPUT CONTROL FOR STRESS PERIOD   37   TIME STEP   29
 
 SOLVING FOR HEAD 
                                                   Max.-Head-Change                         Max.-Flux-Residual
  Residual-Control   Outer-Iter.   Inner-Iter.     Column Row Layer    Maximum-Head-Change  Column Row Layer    Maximum-Flux-Residual          L2-NORM 
          0                 1           2             4    7     1       0.2035192931E-01       4    7    1         0.1067316031E+01      0.2643703096E+01
          0                 2           2             4    7     1      -0.1978622300E-02       4    7    1        -0.1066741110E+00      0.2642746165E+00
          0                 3           2             4    7     1       0.1346352387E-03       4    7    1         0.7461544189E-02      0.1848990211E-01
          0                 4           1             4    7     1      -0.5350541872E-05       4    7    1        -0.3047937312E-03      0.7556139435E-03

    ------------------------------------------------
       NWT REQUIRED            4 OUTER ITERATIONS 
       AND A TOTAL OF          7 INNER ITERATIONS.
    ------------------------------------------------

 NO OUTPUT CONTROL FOR STRESS PERIOD   37   TIME STEP   30



 STREAM LISTING     PERIOD     37   STEP       30

 LAYER ROW COL. STREAM  RCH.  FLOW INTO     FLOW TO   FLOW OUT OF   OVRLND.     DIRECT     STREAM       STREAM     STREAM     STREAM   STREAMBED  STREAMBED
                SEG.NO.  NO.  STRM. RCH.    AQUIFER    STRM. RCH.    RUNOFF     PRECIP       ET          HEAD       DEPTH      WIDTH   CONDCTNC.   GRADIENT

   1    1    1     1     1    1.9000E+01  2.1427E-01   1.8786E+01  0.000E+00  0.000E+00  0.000E+00  1.09413E+03  1.082E+00  1.166E+01  5.249E-02  1.361E+00
   1    2    2     1     2    1.8786E+01  3.3054E-01   1.8455E+01  0.000E+00  0.000E+00  0.000E+00  1.08914E+03  1.077E+00  1.158E+01  8.107E-02  1.359E+00
   1    3    3     1     3    1.8455E+01  2.8064E-01   1.8175E+01  0.000E+00  0.000E+00  0.000E+00  1.08349E+03  1.072E+00  1.149E+01  6.892E-02  1.357E+00
   1    3    4     1     4    1.8175E+01  2.5740E-01   1.7917E+01  0.000E+00  0.000E+00  0.000E+00  1.07848E+03  1.068E+00  1.140E+01  6.328E-02  1.356E+00
   1    4    5     2     1    1.5917E+01  3.0542E-01   1.5612E+01  0.000E+00  0.000E+00  0.000E+00  1.07285E+03  9.157E-01  1.200E+01  7.800E-02  1.305E+00
   1    5    6     2     2    1.5612E+01  2.3438E-01   1.5377E+01  0.000E+00  0.000E+00  0.000E+00  1.06742E+03  9.063E-01  1.200E+01  6.000E-02  1.302E+00
   1    6    6     2     3    1.5377E+01  2.3388E-01   1.5143E+01  0.000E+00  0.000E+00  0.000E+00  1.06269E+03  8.980E-01  1.200E+01  6.000E-02  1.299E+00
   1    7    6     2     4    1.5143E+01  2.3338E-01   1.4910E+01  0.000E+00  0.000E+00  0.000E+00  1.05797E+03  8.897E-01  1.200E+01  6.000E-02  1.297E+00
   1    8    6     2     5    1.4910E+01  2.3289E-01   1.4677E+01  0.000E+00  0.000E+00  0.000E+00  1.05324E+03  8.814E-01  1.200E+01  6.000E-02  1.294E+00
   1    3    5     3     1    2.0000E+00  2.8252E-01   1.7175E+00  0.000E+00  0.000E+00  0.000E+00  1.07555E+03  1.909E+00  9.636E+00  7.227E-02  1.955E+00
   1    3    6     3     2    1.7175E+00  2.4905E-01   1.4684E+00  0.000E+00  0.000E+00  0.000E+00  1.07264E+03  1.727E+00  8.909E+00  6.682E-02  1.864E+00
   1    3    7     3     3    1.4684E+00  1.9718E-01   1.2712E+00  0.000E+00  0.000E+00  0.000E+00  1.06987E+03  1.555E+00  8.218E+00  5.547E-02  1.777E+00
   1    4    8     3     4    1.2712E+00  2.2567E-01   1.0456E+00  0.000E+00  0.000E+00  0.000E+00  1.06682E+03  1.364E+00  7.455E+00  6.709E-02  1.682E+00
   1    5    8     3     5    1.0456E+00  1.5790E-01   8.8768E-01  0.000E+00  0.000E+00  0.000E+00  1.06362E+03  1.164E+00  6.655E+00  4.991E-02  1.582E+00
   1    6    8     3     6    8.8768E-01  5.5980E-02   8.3170E-01  0.000E+00  0.000E+00  0.000E+00  1.06158E+03  1.036E+00  6.145E+00  1.844E-02  1.518E+00
   1    5   10     4     1    1.0000E+01  9.0919E-02   9.9091E+00  0.000E+00  0.000E+00  0.000E+00  1.07836E+03  6.368E-01  1.000E+01  2.500E-02  1.212E+00
   1    5    9     4     2    9.9091E+00  1.8158E-01   9.7275E+00  0.000E+00  0.000E+00  0.000E+00  1.07154E+03  6.315E-01  1.000E+01  5.000E-02  1.211E+00
   1    6    8     4     3    9.7275E+00  1.2689E-01   9.6006E+00  0.000E+00  0.000E+00  0.000E+00  1.06381E+03  6.256E-01  1.000E+01  3.500E-02  1.209E+00
   1    6    8     5     1    1.0432E+01  2.2686E-01   1.0205E+01  0.000E+00  0.000E+00  0.000E+00  1.05868E+03  6.790E-01  1.542E+01  6.166E-02  1.226E+00
   1    7    7     5     2    1.0205E+01  2.7894E-01   9.9265E+00  0.000E+00  0.000E+00  0.000E+00  1.05417E+03  6.732E-01  1.519E+01  7.594E-02  1.224E+00
   1    8    7     5     3    9.9265E+00  1.9221E-01   9.7343E+00  0.000E+00  0.000E+00  0.000E+00  1.04992E+03  6.676E-01  1.497E+01  5.241E-02  1.223E+00
   1    8    6     5     4    9.7343E+00  1.3577E-01   9.5985E+00  0.000E+00  0.000E+00  0.000E+00  1.04691E+03  6.637E-01  1.482E+01  3.706E-02  1.221E+00
   1    9    6     6     1    2.4276E+01  2.5176E-01   2.4024E+01  0.000E+00  0.000E+00  0.000E+00  1.04392E+03  1.196E+00  1.200E+01  6.000E-02  1.399E+00
   1   10    7     6     2    2.4024E+01  2.5131E-01   2.3773E+01  0.000E+00  0.000E+00  0.000E+00  1.03937E+03  1.188E+00  1.200E+01  6.000E-02  1.396E+00
   1   11    7     6     3    2.3773E+01  2.5086E-01   2.3522E+01  0.000E+00  0.000E+00  0.000E+00  1.03482E+03  1.181E+00  1.200E+01  6.000E-02  1.394E+00
   1   12    7     6     4    2.3522E+01  2.5041E-01   2.3271E+01  0.000E+00  0.000E+00  0.000E+00  1.03026E+03  1.173E+00  1.200E+01  6.000E-02  1.391E+00
   1   13    7     6     5    2.3271E+01  8.4237E-03   2.3263E+01  0.000E+00  0.000E+00  0.000E+00  1.02708E+03  1.170E+00  1.200E+01  2.400E-02  1.170E-01
   1   14    9     7     1    1.5000E+02  1.3595E+00   1.4864E+02  0.000E+00  0.000E+00  0.000E+00  1.03987E+03  2.288E+00  5.529E+01  5.593E-01  8.102E-01
   1   13    8     7     2    1.4864E+02  1.9342E+00   1.4671E+02  0.000E+00  0.000E+00  0.000E+00  1.03478E+03  2.279E+00  5.526E+01  6.148E-01  1.049E+00
   1   13    7     7     3    1.4671E+02  1.6534E+00   1.4505E+02  0.000E+00  0.000E+00  0.000E+00  1.02969E+03  2.269E+00  5.521E+01  5.584E-01  9.870E-01
   1   13    6     8     1    1.6832E+02  1.0958E+00   1.6722E+02  0.000E+00  0.000E+00  0.000E+00  1.02481E+03  2.938E+00  4.260E+01  4.341E-01  8.415E-01
   1   13    5     8     2    1.6722E+02  3.4289E-01   1.6688E+02  0.000E+00  0.000E+00  0.000E+00  1.01856E+03  2.933E+00  4.253E+01  4.334E-01  2.637E-01
   1   13    4     8     3    1.6688E+02 -1.8616E+00   1.6874E+02  0.000E+00  0.000E+00  0.000E+00  1.01231E+03  2.938E+00  4.260E+01  4.341E+00 -1.429E-01
   1   13    3     8     4    1.6874E+02 -3.3782E+00   1.7212E+02  0.000E+00  0.000E+00  0.000E+00  1.00608E+03  2.955E+00  4.285E+01  4.366E+00 -2.579E-01
   1   13    2     8     5    1.7212E+02 -2.5133E+00   1.7463E+02  0.000E+00  0.000E+00  0.000E+00  9.99849E+02  2.974E+00  4.312E+01  4.394E+00 -1.906E-01
   1   13    1     8     6    1.7463E+02 -1.9664E+00   1.7660E+02  0.000E+00  0.000E+00  0.000E+00  9.94863E+02  2.988E+00  4.333E+01  2.649E+00 -2.474E-01





UNSATURATED ZONE PACKAGE VOLUMETRIC BUDGET FOR  TIME STEP    30 STRESS PERIOD   37
  ------------------------------------------------------------------------------



     CUMULATIVE VOLUMES      L**3       RATES FOR THIS TIME STEP      L**3/T
     ------------------                 ------------------------

           IN:                                      IN:
           ---                                      ---
        INFILTRATION =  1385458374.7581          INFILTRATION =           0.8475

          OUT:                                     OUT:
          ----                                     ----
              UZF ET =  1271075020.1518                UZF ET =           0.7500
        UZF RECHARGE =   113793151.5802          UZF RECHARGE =           0.0003

            IN - OUT =      590203.0260              IN - OUT =       9.7242E-02

          STORAGE:                                 STORAGE:
          --------                                 --------
      STORAGE CHANGE =      590204.7895        STORAGE CHANGE =       9.7242E-02

 PERCENT DISCREPANCY IS DIFFERENCE BETWEEN IN-OUT MINUS CHANGE IN STORAGE
 DIVIDED BY THE AVERAGE OF IN AND OUT TIMES 100

 PERCENT DISCREPANCY =           0.00     PERCENT DISCREPANCY =           0.00






1
  VOLUMETRIC BUDGET FOR AGRICULTURAL FIELDS AT  END OF TIME STEP   30, STRESS PERIOD  37
  ------------------------------------------------------------------------------

     CUMULATIVE VOLUMES      L**3       RATES FOR THIS TIME STEP      L**3/T
     ------------------                 ------------------------

           IN:                                      IN:
           ---                                      ---
               AG WELLS  =  1305143552.0000                 AG WELLS  =           0.0000
      DIVERSION SEGMENTS =           0.0000        DIVERSION SEGMENTS =           0.0000
       IRRIGATION PONDS  =           0.0000         IRRIGATION PONDS  =           0.0000
           GW IRRIGATION =           0.0000             GW IRRIGATION =           0.0000
           SW IRRIGATION =           0.0000             SW IRRIGATION =           0.0000
        SYSTEM LOSSES GW =           0.0000          SYSTEM LOSSES GW =           0.0000
        SYSTEM LOSSES SW =           0.0000          SYSTEM LOSSES SW =           0.0000

                TOTAL IN =  1305143552.0000                  TOTAL IN =           0.0000

          OUT:                                     OUT:
          ----                                     ----
               AG WELLS  =           0.0000                 AG WELLS  =           0.0000
      DIVERSION SEGMENTS =           0.0000        DIVERSION SEGMENTS =           0.0000
       IRRIGATION PONDS  =           0.0000         IRRIGATION PONDS  =           0.0000
           GW IRRIGATION =  1305143552.0000             GW IRRIGATION =           0.0000
           SW IRRIGATION =           0.0000             SW IRRIGATION =           0.0000
        SYSTEM LOSSES GW =           0.0000          SYSTEM LOSSES GW =           0.0000
        SYSTEM LOSSES SW =           0.0000          SYSTEM LOSSES SW =           0.0000

               TOTAL OUT =  1305143552.0000                 TOTAL OUT =           0.0000

                IN - OUT =           0.0000                  IN - OUT =           0.0000

     PERCENT DISCREPANCY =           0.00         PERCENT DISCREPANCY =           0.00



1
  VOLUMETRIC BUDGET FOR ENTIRE MODEL AT END OF TIME STEP   30, STRESS PERIOD  37
  ------------------------------------------------------------------------------

     CUMULATIVE VOLUMES      L**3       RATES FOR THIS TIME STEP      L**3/T
     ------------------                 ------------------------

           IN:                                      IN:
           ---                                      ---
             STORAGE     =  1729196288.0000               STORAGE     =           6.9649
       CONSTANT HEAD     =           0.0000         CONSTANT HEAD     =           0.0000
     HEAD DEP BOUNDS     =    27088696.0000       HEAD DEP BOUNDS     =           0.2874
      STREAM LEAKAGE     =  1160844928.0000        STREAM LEAKAGE     =          12.1229
        UZF RECHARGE     =   113793192.0000          UZF RECHARGE     =       2.5823E-04
               GW ET     =           0.0000                 GW ET     =           0.0000
     SURFACE LEAKAGE     =           0.0000       SURFACE LEAKAGE     =           0.0000
           AG WELLS      =           0.0000             AG WELLS      =           0.0000

                TOTAL IN =  3030923008.0000                  TOTAL IN =          19.3754

          OUT:                                     OUT:
          ----                                     ----
             STORAGE     =   709117888.0000               STORAGE     =           9.3670
       CONSTANT HEAD     =           0.0000         CONSTANT HEAD     =           0.0000
     HEAD DEP BOUNDS     =    27713120.0000       HEAD DEP BOUNDS     =           0.2890
      STREAM LEAKAGE     =   971343488.0000        STREAM LEAKAGE     =           9.7194
        UZF RECHARGE     =           0.0000          UZF RECHARGE     =           0.0000
               GW ET     =    17607784.0000                 GW ET     =           0.0000
     SURFACE LEAKAGE     =           0.0000       SURFACE LEAKAGE     =           0.0000
           AG WELLS      =  1305143552.0000             AG WELLS      =           0.0000

               TOTAL OUT =  3030925824.0000                 TOTAL OUT =          19.3754

                IN - OUT =       -2816.0000                  IN - OUT =       1.3351E-05

     PERCENT DISCREPANCY =          -0.00         PERCENT DISCREPANCY =           0.00






         TIME SUMMARY AT END OF TIME STEP   30 IN STRESS PERIOD   37
                    SECONDS     MINUTES      HOURS       DAYS        YEARS
                    -----------------------------------------------------------
   TIME STEP LENGTH  87667.      1461.1      24.352      1.0147     2.77799E-03
 STRESS PERIOD TIME 2.63000E+06  43833.      730.56      30.440     8.33397E-02
         TOTAL TIME 9.47660E+07 1.57943E+06  26324.      1096.8      3.0030    
1
1
                            STRESS PERIOD NO.   38, LENGTH =   2630000.    
                            -----------------------------------------------

                              NUMBER OF TIME STEPS =    30

                               MULTIPLIER FOR DELT =     1.000

                            INITIAL TIME STEP SIZE =   87666.66    

 REUSING NON-PARAMETER GHB CELLS FROM LAST STRESS PERIOD

      2 GHB CELLS

 REUSING STREAM SEGMENT DATA FROM LAST STRESS PERIOD



            AREAL INFILTRATION RATE
 READING ON UNIT   19 WITH FORMAT: (FREE)              

            1           2           3           4           5           6           7           8           9          10
 ........................................................................................................................
   1   1.0000E-10  2.0000E-10   0.000       0.000       0.000       0.000       0.000       0.000       0.000       0.000    
   2   2.0000E-10  1.0000E-10  2.0000E-10   0.000       0.000      8.0000E-10  8.0000E-10  5.0000E-10   0.000       0.000    
   3    0.000      5.0000E-10  1.0000E-10  1.0000E-10  8.0000E-10  8.0000E-10  5.0000E-10  5.0000E-10   0.000       0.000    
   4   8.0000E-10  5.0000E-10  1.0000E-10  1.0000E-10  1.0000E-10  1.0000E-10  1.0000E-10  1.0000E-10  2.0000E-10   0.000    
   5   8.0000E-10  5.0000E-10  1.0000E-10  1.0000E-10  1.0000E-10  1.0000E-10  1.0000E-10  1.0000E-10  1.0000E-10  1.0000E-10
   6   8.0000E-10  5.0000E-10  5.0000E-10  2.0000E-10  2.0000E-10  1.0000E-10  1.0000E-10  1.0000E-10  1.0000E-10  5.0000E-10
   7   8.0000E-10  5.0000E-10  5.0000E-10  2.0000E-10  2.0000E-10  1.0000E-10  1.0000E-10  2.0000E-10  2.0000E-10   0.000    
   8    0.000      5.0000E-10  5.0000E-10  2.0000E-10  2.0000E-10  1.0000E-10  1.0000E-10  2.0000E-10  5.0000E-10   0.000    
   9    0.000      5.0000E-10  5.0000E-10  2.0000E-10  2.0000E-10  1.0000E-10  1.0000E-10  2.0000E-10  5.0000E-10   0.000    
  10    0.000      5.0000E-10  5.0000E-10  2.0000E-10  2.0000E-10  1.0000E-10  1.0000E-10  2.0000E-10  5.0000E-10  8.0000E-10
  11    0.000      1.0000E-10  1.0000E-10  1.0000E-10  1.0000E-10  1.0000E-10  1.0000E-10  2.0000E-10  5.0000E-10   0.000    
  12   1.0000E-10  1.0000E-10  1.0000E-10  1.0000E-10  1.0000E-10  1.0000E-10  1.0000E-10  1.0000E-10  2.0000E-10   0.000    
  13   1.0000E-10  1.0000E-10  2.0000E-10  2.0000E-10  2.0000E-10  2.0000E-10  2.0000E-10  1.0000E-10  1.0000E-10   0.000    
  14    0.000      2.0000E-10  5.0000E-10  5.0000E-10  5.0000E-10  5.0000E-10  5.0000E-10  2.0000E-10  1.0000E-10   0.000    
  15    0.000       0.000      8.0000E-10  8.0000E-10  8.0000E-10  8.0000E-10   0.000       0.000       0.000       0.000    

                  ET RATE =  5.000000E-10

 USING ET EXTINCTION DEPTH FROM PREVIOUS STRESS PERIOD. CURRENT PERIOD IS:      38

 USING EXTINCTION WATER CONTENT FROM PREVIOUS STRESS PERIOD. CURRENT PERIOD IS:      38

 USING AIR ENTRY PRESSURE FROM PREVIOUS STRESS PERIOD. CURRENT PERIOD IS:      38

 USING ROOT PRESSURE HEAD FROM PREVIOUS STRESS PERIOD. CURRENT PERIOD IS:      38

 USING ROOT ACTIVITY FROM PREVIOUS STRESS PERIOD. CURRENT PERIOD IS:      38

 PROCESSING AG STRESS PERIOD DATA

 READING AG STRESS PERIOD DATA

 READING IRRIGATION WELL

 NO IRRPOND OR REUSING IRRPOND DATA FROM LAST STRESS PERIOD

 END PROCESSING AG STRESS PERIOD DATA OPTIONS
 
 SOLVING FOR HEAD 
                                                   Max.-Head-Change                         Max.-Flux-Residual
  Residual-Control   Outer-Iter.   Inner-Iter.     Column Row Layer    Maximum-Head-Change  Column Row Layer    Maximum-Flux-Residual          L2-NORM 
          0                 1           2             4    7     1       0.2016472535E-01       4    7    1         0.1057453278E+01      0.2623824001E+01
          0                 2           2             4    7     1      -0.1960422148E-02       4    7    1        -0.1056883586E+00      0.2622875884E+00
          0                 3           2             4    7     1       0.1333968091E-03       4    7    1         0.7392593493E-02      0.1835087684E-01
          0                 4           1             4    7     1      -0.5301325053E-05       4    7    1        -0.3019771716E-03      0.7499291726E-03

    ------------------------------------------------
       NWT REQUIRED            4 OUTER ITERATIONS 
       AND A TOTAL OF          7 INNER ITERATIONS.
    ------------------------------------------------

 NO OUTPUT CONTROL FOR STRESS PERIOD   38   TIME STEP    1
 
 SOLVING FOR HEAD 
                                                   Max.-Head-Change                         Max.-Flux-Residual
  Residual-Control   Outer-Iter.   Inner-Iter.     Column Row Layer    Maximum-Head-Change  Column Row Layer    Maximum-Flux-Residual          L2-NORM 
          0                 1           2             4    7     1       0.1997993223E-01       4    7    1         0.1047717770E+01      0.2604207449E+01
          0                 2           2             4    7     1      -0.1942456383E-02       4    7    1        -0.1047153242E+00      0.2603269053E+00
          0                 3           2             4    7     1       0.1321743285E-03       4    7    1         0.7324532397E-02      0.1821377738E-01
          0                 4           1             4    7     1      -0.5252742127E-05       4    7    1        -0.2991969404E-03      0.7443255917E-03

    ------------------------------------------------
       NWT REQUIRED            4 OUTER ITERATIONS 
       AND A TOTAL OF          7 INNER ITERATIONS.
    ------------------------------------------------

 NO OUTPUT CONTROL FOR STRESS PERIOD   38   TIME STEP    2
 
 SOLVING FOR HEAD 
                                                   Max.-Head-Change                         Max.-Flux-Residual
  Residual-Control   Outer-Iter.   Inner-Iter.     Column Row Layer    Maximum-Head-Change  Column Row Layer    Maximum-Flux-Residual          L2-NORM 
          0                 1           2             4    7     1       0.1979763953E-01       4    7    1         0.1038114566E+01      0.2584850637E+01
          0                 2           2             4    7     1      -0.1924733713E-02       4    7    1        -0.1037555132E+00      0.2583920585E+00
          0                 3           2             4    7     1       0.1309683893E-03       4    7    1         0.7257396222E-02      0.1807836534E-01
          0                 4           1             4    7     1      -0.5204817040E-05       4    7    1        -0.2964545210E-03      0.7387905131E-03

    ------------------------------------------------
       NWT REQUIRED            4 OUTER ITERATIONS 
       AND A TOTAL OF          7 INNER ITERATIONS.
    ------------------------------------------------

 NO OUTPUT CONTROL FOR STRESS PERIOD   38   TIME STEP    3
 
 SOLVING FOR HEAD 
                                                   Max.-Head-Change                         Max.-Flux-Residual
  Residual-Control   Outer-Iter.   Inner-Iter.     Column Row Layer    Maximum-Head-Change  Column Row Layer    Maximum-Flux-Residual          L2-NORM 
          0                 1           2             4    7     1       0.1961792634E-01       4    7    1         0.1028648311E+01      0.2565743665E+01
          0                 2           2             4    7     1      -0.1907261826E-02       4    7    1        -0.1028093900E+00      0.2564822446E+00
          0                 3           2             4    7     1       0.1297795144E-03       4    7    1         0.7191217483E-02      0.1794475231E-01
          0                 4           1             4    7     1      -0.5157569939E-05       4    7    1        -0.2937511958E-03      0.7333235554E-03

    ------------------------------------------------
       NWT REQUIRED            4 OUTER ITERATIONS 
       AND A TOTAL OF          7 INNER ITERATIONS.
    ------------------------------------------------

 NO OUTPUT CONTROL FOR STRESS PERIOD   38   TIME STEP    4
 
 SOLVING FOR HEAD 
                                                   Max.-Head-Change                         Max.-Flux-Residual
  Residual-Control   Outer-Iter.   Inner-Iter.     Column Row Layer    Maximum-Head-Change  Column Row Layer    Maximum-Flux-Residual          L2-NORM 
          0                 1           2             4    7     1       0.1944073802E-01       4    7    1         0.1019315800E+01      0.2546885764E+01
          0                 2           2             4    7     1      -0.1890035413E-02       4    7    1        -0.1018766342E+00      0.2545973260E+00
          0                 3           2             4    7     1       0.1286073428E-03       4    7    1         0.7125973760E-02      0.1781290977E-01
          0                 4           1             4    7     1      -0.5110986203E-05       4    7    1        -0.2910860503E-03      0.7279421993E-03

    ------------------------------------------------
       NWT REQUIRED            4 OUTER ITERATIONS 
       AND A TOTAL OF          7 INNER ITERATIONS.
    ------------------------------------------------

 NO OUTPUT CONTROL FOR STRESS PERIOD   38   TIME STEP    5
 
 SOLVING FOR HEAD 
                                                   Max.-Head-Change                         Max.-Flux-Residual
  Residual-Control   Outer-Iter.   Inner-Iter.     Column Row Layer    Maximum-Head-Change  Column Row Layer    Maximum-Flux-Residual          L2-NORM 
          0                 1           2             4    7     1       0.1926575541E-01       4    7    1         0.1010099583E+01      0.2528270975E+01
          0                 2           2             4    7     1      -0.1873023442E-02       4    7    1        -0.1009555018E+00      0.2527366939E+00
          0                 3           2             4    7     1       0.1274497630E-03       4    7    1         0.7061543068E-02      0.1768275508E-01
          0                 4           1             4    7     1      -0.5064982481E-05       4    7    1        -0.2884541227E-03      0.7226352760E-03

    ------------------------------------------------
       NWT REQUIRED            4 OUTER ITERATIONS 
       AND A TOTAL OF          7 INNER ITERATIONS.
    ------------------------------------------------

 NO OUTPUT CONTROL FOR STRESS PERIOD   38   TIME STEP    6
 
 SOLVING FOR HEAD 
                                                   Max.-Head-Change                         Max.-Flux-Residual
  Residual-Control   Outer-Iter.   Inner-Iter.     Column Row Layer    Maximum-Head-Change  Column Row Layer    Maximum-Flux-Residual          L2-NORM 
          0                 1           2             4    7     1       0.1909320458E-01       4    7    1         0.1001012343E+01      0.2509894020E+01
          0                 2           2             4    7     1      -0.1856247893E-02       4    7    1        -0.1000472605E+00      0.2508998662E+00
          0                 3           2             4    7     1       0.1263082703E-03       4    7    1         0.6998014050E-02      0.1755426811E-01
          0                 4           1             4    7     1      -0.5019618407E-05       4    7    1        -0.2858590360E-03      0.7173804899E-03

    ------------------------------------------------
       NWT REQUIRED            4 OUTER ITERATIONS 
       AND A TOTAL OF          7 INNER ITERATIONS.
    ------------------------------------------------

 NO OUTPUT CONTROL FOR STRESS PERIOD   38   TIME STEP    7
 
 SOLVING FOR HEAD 
                                                   Max.-Head-Change                         Max.-Flux-Residual
  Residual-Control   Outer-Iter.   Inner-Iter.     Column Row Layer    Maximum-Head-Change  Column Row Layer    Maximum-Flux-Residual          L2-NORM 
          0                 1           2             4    7     1       0.1892303849E-01       4    7    1         0.9920511875E+00      0.2491753171E+01
          0                 2           2             4    7     1      -0.1839704192E-02       4    7    1        -0.9915162087E-01      0.2490866064E+00
          0                 3           2             4    7     1       0.1251825541E-03       4    7    1         0.6935366512E-02      0.1742740835E-01
          0                 4           1             4    7     1      -0.4974881088E-05       4    7    1        -0.2832999594E-03      0.7121872994E-03

    ------------------------------------------------
       NWT REQUIRED            4 OUTER ITERATIONS 
       AND A TOTAL OF          7 INNER ITERATIONS.
    ------------------------------------------------

 NO OUTPUT CONTROL FOR STRESS PERIOD   38   TIME STEP    8
 
 SOLVING FOR HEAD 
                                                   Max.-Head-Change                         Max.-Flux-Residual
  Residual-Control   Outer-Iter.   Inner-Iter.     Column Row Layer    Maximum-Head-Change  Column Row Layer    Maximum-Flux-Residual          L2-NORM 
          0                 1           2             4    7     1       0.1875493451E-01       4    7    1         0.9831990592E+00      0.2473837803E+01
          0                 2           2             4    7     1      -0.1823360973E-02       4    7    1        -0.9826687836E-01      0.2472959028E+00
          0                 3           2             4    7     1       0.1240704798E-03       4    7    1         0.6873481202E-02      0.1730213945E-01
          0                 4           1             4    7     1      -0.4930686250E-05       4    7    1        -0.2807720248E-03      0.7070905010E-03

    ------------------------------------------------
       NWT REQUIRED            4 OUTER ITERATIONS 
       AND A TOTAL OF          7 INNER ITERATIONS.
    ------------------------------------------------

 NO OUTPUT CONTROL FOR STRESS PERIOD   38   TIME STEP    9
 
 SOLVING FOR HEAD 
                                                   Max.-Head-Change                         Max.-Flux-Residual
  Residual-Control   Outer-Iter.   Inner-Iter.     Column Row Layer    Maximum-Head-Change  Column Row Layer    Maximum-Flux-Residual          L2-NORM 
          0                 1           2             4    7     1       0.1858926375E-01       4    7    1         0.9744757734E+00      0.2456160591E+01
          0                 2           2             4    7     1      -0.1807254315E-02       4    7    1        -0.9739501339E-01      0.2455289922E+00
          0                 3           2             4    7     1       0.1229745022E-03       4    7    1         0.6812496627E-02      0.1717853727E-01
          0                 4           1             4    7     1      -0.4887130831E-05       4    7    1        -0.2782808824E-03      0.7020232036E-03

    ------------------------------------------------
       NWT REQUIRED            4 OUTER ITERATIONS 
       AND A TOTAL OF          7 INNER ITERATIONS.
    ------------------------------------------------

 NO OUTPUT CONTROL FOR STRESS PERIOD   38   TIME STEP   10
 
 SOLVING FOR HEAD 
                                                   Max.-Head-Change                         Max.-Flux-Residual
  Residual-Control   Outer-Iter.   Inner-Iter.     Column Row Layer    Maximum-Head-Change  Column Row Layer    Maximum-Flux-Residual          L2-NORM 
          0                 1           2             4    7     1       0.1842570170E-01       4    7    1         0.9658640280E+00      0.2438696340E+01
          0                 2           2             4    7     1      -0.1791352670E-02       4    7    1        -0.9653429664E-01      0.2437833725E+00
          0                 3           2             4    7     1       0.1218924746E-03       4    7    1         0.6752291849E-02      0.1705642003E-01
          0                 4           1             4    7     1      -0.4844129636E-05       4    7    1        -0.2758215805E-03      0.6970270761E-03

    ------------------------------------------------
       NWT REQUIRED            4 OUTER ITERATIONS 
       AND A TOTAL OF          7 INNER ITERATIONS.
    ------------------------------------------------

 NO OUTPUT CONTROL FOR STRESS PERIOD   38   TIME STEP   11
 
 SOLVING FOR HEAD 
                                                   Max.-Head-Change                         Max.-Flux-Residual
  Residual-Control   Outer-Iter.   Inner-Iter.     Column Row Layer    Maximum-Head-Change  Column Row Layer    Maximum-Flux-Residual          L2-NORM 
          0                 1           2             4    7     1       0.1826421144E-01       4    7    1         0.9573616152E+00      0.2421455028E+01
          0                 2           2             4    7     1      -0.1775652447E-02       4    7    1        -0.9568450741E-01      0.2420600566E+00
          0                 3           2             4    7     1       0.1208241529E-03       4    7    1         0.6692851431E-02      0.1693587453E-01
          0                 4           1             4    7     1      -0.4801673110E-05       4    7    1        -0.2733935066E-03      0.6921163177E-03

    ------------------------------------------------
       NWT REQUIRED            4 OUTER ITERATIONS 
       AND A TOTAL OF          7 INNER ITERATIONS.
    ------------------------------------------------

 NO OUTPUT CONTROL FOR STRESS PERIOD   38   TIME STEP   12
 
 SOLVING FOR HEAD 
                                                   Max.-Head-Change                         Max.-Flux-Residual
  Residual-Control   Outer-Iter.   Inner-Iter.     Column Row Layer    Maximum-Head-Change  Column Row Layer    Maximum-Flux-Residual          L2-NORM 
          0                 1           2             4    7     1       0.1810488734E-01       4    7    1         0.9489739306E+00      0.2404428859E+01
          0                 2           2             4    7     1      -0.1760162822E-02       4    7    1        -0.9484618504E-01      0.2403582337E+00
          0                 3           2             4    7     1       0.1197701616E-03       4    7    1         0.6634213094E-02      0.1681682221E-01
          0                 4           1             4    7     1      -0.4759786695E-05       4    7    1        -0.2709982109E-03      0.6872547263E-03

    ------------------------------------------------
       NWT REQUIRED            4 OUTER ITERATIONS 
       AND A TOTAL OF          7 INNER ITERATIONS.
    ------------------------------------------------

 NO OUTPUT CONTROL FOR STRESS PERIOD   38   TIME STEP   13
 
 SOLVING FOR HEAD 
                                                   Max.-Head-Change                         Max.-Flux-Residual
  Residual-Control   Outer-Iter.   Inner-Iter.     Column Row Layer    Maximum-Head-Change  Column Row Layer    Maximum-Flux-Residual          L2-NORM 
          0                 1           2             4    7     1       0.1794769070E-01       4    7    1         0.9406985578E+00      0.2387620995E+01
          0                 2           2             4    7     1      -0.1747089577E-02       4    7    1        -0.9416322909E-01      0.2387167014E+00
          0                 3           2             4    7     1       0.1188806412E-03       4    7    1         0.6586443229E-02      0.1670197973E-01
          0                 4           1             4    7     1      -0.4724439644E-05       4    7    1        -0.2690469496E-03      0.6825449392E-03

    ------------------------------------------------
       NWT REQUIRED            4 OUTER ITERATIONS 
       AND A TOTAL OF          7 INNER ITERATIONS.
    ------------------------------------------------

 NO OUTPUT CONTROL FOR STRESS PERIOD   38   TIME STEP   14
 
 SOLVING FOR HEAD 
                                                   Max.-Head-Change                         Max.-Flux-Residual
  Residual-Control   Outer-Iter.   Inner-Iter.     Column Row Layer    Maximum-Head-Change  Column Row Layer    Maximum-Flux-Residual          L2-NORM 
          0                 1           2             4    7     1       0.1778691756E-01       4    7    1         0.9324084078E+00      0.2370981373E+01
          0                 2           2             4    7     1      -0.1729250388E-02       4    7    1        -0.9319054795E-01      0.2370150362E+00
          0                 3           1             4    7     1       0.1176667726E-03       4    7    1         0.6518406504E-02      0.1658294236E-01
          0                 4           1             4    7     1      -0.4676202331E-05       4    7    1        -0.2662677111E-03      0.6776928202E-03

    ------------------------------------------------
       NWT REQUIRED            4 OUTER ITERATIONS 
       AND A TOTAL OF          6 INNER ITERATIONS.
    ------------------------------------------------

 NO OUTPUT CONTROL FOR STRESS PERIOD   38   TIME STEP   15
 
 SOLVING FOR HEAD 
                                                   Max.-Head-Change                         Max.-Flux-Residual
  Residual-Control   Outer-Iter.   Inner-Iter.     Column Row Layer    Maximum-Head-Change  Column Row Layer    Maximum-Flux-Residual          L2-NORM 
          0                 1           2             4    7     1       0.1763072001E-01       4    7    1         0.9241756285E+00      0.2354534436E+01
          0                 2           2             4    7     1      -0.1714064704E-02       4    7    1        -0.9236770624E-01      0.2353711493E+00
          0                 3           1             4    7     1       0.1166334619E-03       4    7    1         0.6460850937E-02      0.1646799982E-01
          0                 4           1             4    7     1      -0.4635137352E-05       4    7    1        -0.2639166269E-03      0.6730006937E-03

    ------------------------------------------------
       NWT REQUIRED            4 OUTER ITERATIONS 
       AND A TOTAL OF          6 INNER ITERATIONS.
    ------------------------------------------------

 NO OUTPUT CONTROL FOR STRESS PERIOD   38   TIME STEP   16
 
 SOLVING FOR HEAD 
                                                   Max.-Head-Change                         Max.-Flux-Residual
  Residual-Control   Outer-Iter.   Inner-Iter.     Column Row Layer    Maximum-Head-Change  Column Row Layer    Maximum-Flux-Residual          L2-NORM 
          0                 1           2             4    7     1       0.1747677333E-01       4    7    1         0.9160623604E+00      0.2338298824E+01
          0                 2           2             4    7     1      -0.1699097855E-02       4    7    1        -0.9155680953E-01      0.2337482994E+00
          0                 3           1             4    7     1       0.1156150416E-03       4    7    1         0.6404130893E-02      0.1635444428E-01
          0                 4           1             4    7     1      -0.4594663783E-05       4    7    1        -0.2615996664E-03      0.6683636653E-03

    ------------------------------------------------
       NWT REQUIRED            4 OUTER ITERATIONS 
       AND A TOTAL OF          6 INNER ITERATIONS.
    ------------------------------------------------

 NO OUTPUT CONTROL FOR STRESS PERIOD   38   TIME STEP   17
 
 SOLVING FOR HEAD 
                                                   Max.-Head-Change                         Max.-Flux-Residual
  Residual-Control   Outer-Iter.   Inner-Iter.     Column Row Layer    Maximum-Head-Change  Column Row Layer    Maximum-Flux-Residual          L2-NORM 
          0                 1           2             4    7     1       0.1732488881E-01       4    7    1         0.9080584846E+00      0.2322258776E+01
          0                 2           2             4    7     1      -0.1684331493E-02       4    7    1        -0.9075684638E-01      0.2321450795E+00
          0                 3           1             4    7     1       0.1146102642E-03       4    7    1         0.6348175640E-02      0.1624229644E-01
          0                 4           1             4    7     1      -0.4554732926E-05       4    7    1        -0.2593139720E-03      0.6637896086E-03

    ------------------------------------------------
       NWT REQUIRED            4 OUTER ITERATIONS 
       AND A TOTAL OF          6 INNER ITERATIONS.
    ------------------------------------------------

 NO OUTPUT CONTROL FOR STRESS PERIOD   38   TIME STEP   18
 
 SOLVING FOR HEAD 
                                                   Max.-Head-Change                         Max.-Flux-Residual
  Residual-Control   Outer-Iter.   Inner-Iter.     Column Row Layer    Maximum-Head-Change  Column Row Layer    Maximum-Flux-Residual          L2-NORM 
          0                 1           2             4    7     1       0.1717515065E-01       4    7    1         0.9001688395E+00      0.2306414422E+01
          0                 2           2             4    7     1      -0.1669773805E-02       4    7    1        -0.8996830044E-01      0.2305613377E+00
          0                 3           1             4    7     1       0.1136196856E-03       4    7    1         0.6293018998E-02      0.1613148538E-01
          0                 4           1             4    7     1      -0.4515365965E-05       4    7    1        -0.2570608726E-03      0.6592494967E-03

    ------------------------------------------------
       NWT REQUIRED            4 OUTER ITERATIONS 
       AND A TOTAL OF          6 INNER ITERATIONS.
    ------------------------------------------------

 NO OUTPUT CONTROL FOR STRESS PERIOD   38   TIME STEP   19
 
 SOLVING FOR HEAD 
                                                   Max.-Head-Change                         Max.-Flux-Residual
  Residual-Control   Outer-Iter.   Inner-Iter.     Column Row Layer    Maximum-Head-Change  Column Row Layer    Maximum-Flux-Residual          L2-NORM 
          0                 1           2             4    7     1       0.1702751116E-01       4    7    1         0.8923904798E+00      0.2290766512E+01
          0                 2           2             4    7     1      -0.1655420153E-02       4    7    1        -0.8919087728E-01      0.2289972917E+00
          0                 3           1             4    7     1       0.1126429908E-03       4    7    1         0.6238640345E-02      0.1602207298E-01
          0                 4           1             4    7     1      -0.4476551155E-05       4    7    1        -0.2548395742E-03      0.6547820674E-03

    ------------------------------------------------
       NWT REQUIRED            4 OUTER ITERATIONS 
       AND A TOTAL OF          6 INNER ITERATIONS.
    ------------------------------------------------

 NO OUTPUT CONTROL FOR STRESS PERIOD   38   TIME STEP   20
 
 SOLVING FOR HEAD 
                                                   Max.-Head-Change                         Max.-Flux-Residual
  Residual-Control   Outer-Iter.   Inner-Iter.     Column Row Layer    Maximum-Head-Change  Column Row Layer    Maximum-Flux-Residual          L2-NORM 
          0                 1           2             4    7     1       0.1688191802E-01       4    7    1         0.8847209325E+00      0.2275309939E+01
          0                 2           2             4    7     1      -0.1641265452E-02       4    7    1        -0.8842432972E-01      0.2274523446E+00
          0                 3           1             4    7     1       0.1116798336E-03       4    7    1         0.6185022430E-02      0.1591399702E-01
          0                 4           1             4    7     1      -0.4438274451E-05       4    7    1        -0.2526493436E-03      0.6503553643E-03

    ------------------------------------------------
       NWT REQUIRED            4 OUTER ITERATIONS 
       AND A TOTAL OF          6 INNER ITERATIONS.
    ------------------------------------------------

 NO OUTPUT CONTROL FOR STRESS PERIOD   38   TIME STEP   21
 
 SOLVING FOR HEAD 
                                                   Max.-Head-Change                         Max.-Flux-Residual
  Residual-Control   Outer-Iter.   Inner-Iter.     Column Row Layer    Maximum-Head-Change  Column Row Layer    Maximum-Flux-Residual          L2-NORM 
          0                 1           2             4    7     1       0.1673819265E-01       4    7    1         0.8771501730E+00      0.2260040970E+01
          0                 2           2             4    7     1      -0.1627292339E-02       4    7    1        -0.8766765584E-01      0.2259261707E+00
          0                 3           1             4    7     1       0.1107290327E-03       4    7    1         0.6132095152E-02      0.1580724630E-01
          0                 4           1             4    7     1      -0.4400488306E-05       4    7    1        -0.2504873287E-03      0.6459982870E-03

    ------------------------------------------------
       NWT REQUIRED            4 OUTER ITERATIONS 
       AND A TOTAL OF          6 INNER ITERATIONS.
    ------------------------------------------------

 NO OUTPUT CONTROL FOR STRESS PERIOD   38   TIME STEP   22
 
 SOLVING FOR HEAD 
                                                   Max.-Head-Change                         Max.-Flux-Residual
  Residual-Control   Outer-Iter.   Inner-Iter.     Column Row Layer    Maximum-Head-Change  Column Row Layer    Maximum-Flux-Residual          L2-NORM 
          0                 1           2             4    7     1       0.1659642995E-01       4    7    1         0.8696835663E+00      0.2244956309E+01
          0                 2           2             4    7     1      -0.1613510040E-02       4    7    1        -0.8692139183E-01      0.2244183843E+00
          0                 3           1             4    7     1       0.1097912159E-03       4    7    1         0.6079896027E-02      0.1570175636E-01
          0                 4           1             4    7     1      -0.4363218278E-05       4    7    1        -0.2483550584E-03      0.6416907702E-03

    ------------------------------------------------
       NWT REQUIRED            4 OUTER ITERATIONS 
       AND A TOTAL OF          6 INNER ITERATIONS.
    ------------------------------------------------

 NO OUTPUT CONTROL FOR STRESS PERIOD   38   TIME STEP   23
 
 SOLVING FOR HEAD 
                                                   Max.-Head-Change                         Max.-Flux-Residual
  Residual-Control   Outer-Iter.   Inner-Iter.     Column Row Layer    Maximum-Head-Change  Column Row Layer    Maximum-Flux-Residual          L2-NORM 
          0                 1           2             4    7     1       0.1645671984E-01       4    7    1         0.8623260337E+00      0.2230056767E+01
          0                 2           2             4    7     1      -0.1599927299E-02       4    7    1        -0.8618602962E-01      0.2229291461E+00
          0                 3           1             4    7     1       0.1088669778E-03       4    7    1         0.6028459452E-02      0.1559757656E-01
          0                 4           1             4    7     1      -0.4326488084E-05       4    7    1        -0.2462539292E-03      0.6374149196E-03

    ------------------------------------------------
       NWT REQUIRED            4 OUTER ITERATIONS 
       AND A TOTAL OF          6 INNER ITERATIONS.
    ------------------------------------------------

 NO OUTPUT CONTROL FOR STRESS PERIOD   38   TIME STEP   24
 
 SOLVING FOR HEAD 
                                                   Max.-Head-Change                         Max.-Flux-Residual
  Residual-Control   Outer-Iter.   Inner-Iter.     Column Row Layer    Maximum-Head-Change  Column Row Layer    Maximum-Flux-Residual          L2-NORM 
          0                 1           2             4    7     1       0.1631874250E-01       4    7    1         0.8550602985E+00      0.2215331266E+01
          0                 2           2             4    7     1      -0.1586513020E-02       4    7    1        -0.8545984238E-01      0.2214574273E+00
          0                 3           1             4    7     1       0.1079542027E-03       4    7    1         0.5977664634E-02      0.1549463208E-01
          0                 4           1             4    7     1      -0.4290213219E-05       4    7    1        -0.2441790180E-03      0.6332281040E-03

    ------------------------------------------------
       NWT REQUIRED            4 OUTER ITERATIONS 
       AND A TOTAL OF          6 INNER ITERATIONS.
    ------------------------------------------------

 NO OUTPUT CONTROL FOR STRESS PERIOD   38   TIME STEP   25
 
 SOLVING FOR HEAD 
                                                   Max.-Head-Change                         Max.-Flux-Residual
  Residual-Control   Outer-Iter.   Inner-Iter.     Column Row Layer    Maximum-Head-Change  Column Row Layer    Maximum-Flux-Residual          L2-NORM 
          0                 1           2             4    7     1       0.1618260039E-01       4    7    1         0.8478917173E+00      0.2200786158E+01
          0                 2           2             4    7     1      -0.1573277166E-02       4    7    1        -0.8474336548E-01      0.2200034350E+00
          0                 3           1             4    7     1       0.1070535689E-03       4    7    1         0.5927549035E-02      0.1539290487E-01
          0                 4           1             4    7     1      -0.4254420969E-05       4    7    1        -0.2421318659E-03      0.6290758160E-03

    ------------------------------------------------
       NWT REQUIRED            4 OUTER ITERATIONS 
       AND A TOTAL OF          6 INNER ITERATIONS.
    ------------------------------------------------

 NO OUTPUT CONTROL FOR STRESS PERIOD   38   TIME STEP   26
 
 SOLVING FOR HEAD 
                                                   Max.-Head-Change                         Max.-Flux-Residual
  Residual-Control   Outer-Iter.   Inner-Iter.     Column Row Layer    Maximum-Head-Change  Column Row Layer    Maximum-Flux-Residual          L2-NORM 
          0                 1           2             4    7     1       0.1604825554E-01       4    7    1         0.8408182901E+00      0.2186414039E+01
          0                 2           2             4    7     1      -0.1560216044E-02       4    7    1        -0.8403639904E-01      0.2185669041E+00
          0                 3           1             4    7     1       0.1061648242E-03       4    7    1         0.5878098654E-02      0.1529243828E-01
          0                 4           1             4    7     1      -0.4219101433E-05       4    7    1        -0.2401118754E-03      0.6249654662E-03

    ------------------------------------------------
       NWT REQUIRED            4 OUTER ITERATIONS 
       AND A TOTAL OF          6 INNER ITERATIONS.
    ------------------------------------------------

 NO OUTPUT CONTROL FOR STRESS PERIOD   38   TIME STEP   27
 
 SOLVING FOR HEAD 
                                                   Max.-Head-Change                         Max.-Flux-Residual
  Residual-Control   Outer-Iter.   Inner-Iter.     Column Row Layer    Maximum-Head-Change  Column Row Layer    Maximum-Flux-Residual          L2-NORM 
          0                 1           2             4    7     1       0.1591566668E-01       4    7    1         0.8338380476E+00      0.2172208440E+01
          0                 2           2             4    7     1      -0.1547325643E-02       4    7    1        -0.8333874624E-01      0.2171470174E+00
          0                 3           1             4    7     1       0.1052876970E-03       4    7    1         0.5829299784E-02      0.1519310501E-01
          0                 4           1             4    7     1      -0.4184243329E-05       4    7    1        -0.2381184991E-03      0.6209124153E-03

    ------------------------------------------------
       NWT REQUIRED            4 OUTER ITERATIONS 
       AND A TOTAL OF          6 INNER ITERATIONS.
    ------------------------------------------------

 NO OUTPUT CONTROL FOR STRESS PERIOD   38   TIME STEP   28
 
 SOLVING FOR HEAD 
                                                   Max.-Head-Change                         Max.-Flux-Residual
  Residual-Control   Outer-Iter.   Inner-Iter.     Column Row Layer    Maximum-Head-Change  Column Row Layer    Maximum-Flux-Residual          L2-NORM 
          0                 1           2             4    7     1       0.1578479894E-01       4    7    1         0.8269488502E+00      0.2158177787E+01
          0                 2           2             4    7     1      -0.1534602571E-02       4    7    1        -0.8265019320E-01      0.2157446058E+00
          0                 3           1             4    7     1       0.1044219548E-03       4    7    1         0.5781137372E-02      0.1509500380E-01
          0                 4           1             4    7     1      -0.4149837560E-05       4    7    1        -0.2361511074E-03      0.6169089296E-03

    ------------------------------------------------
       NWT REQUIRED            4 OUTER ITERATIONS 
       AND A TOTAL OF          6 INNER ITERATIONS.
    ------------------------------------------------

 NO OUTPUT CONTROL FOR STRESS PERIOD   38   TIME STEP   29
 
 SOLVING FOR HEAD 
                                                   Max.-Head-Change                         Max.-Flux-Residual
  Residual-Control   Outer-Iter.   Inner-Iter.     Column Row Layer    Maximum-Head-Change  Column Row Layer    Maximum-Flux-Residual          L2-NORM 
          0                 1           2             4    7     1       0.1565561511E-01       4    7    1         0.8201488896E+00      0.2144309785E+01
          0                 2           2             4    7     1      -0.1522043213E-02       4    7    1        -0.8197055920E-01      0.2143584202E+00
          0                 3           1             4    7     1       0.1035673532E-03       4    7    1         0.5733598841E-02      0.1499801274E-01
          0                 4           1             4    7     1      -0.4115875033E-05       4    7    1        -0.2342092289E-03      0.6129362070E-03

    ------------------------------------------------
       NWT REQUIRED            4 OUTER ITERATIONS 
       AND A TOTAL OF          6 INNER ITERATIONS.
    ------------------------------------------------

 NO OUTPUT CONTROL FOR STRESS PERIOD   38   TIME STEP   30



 STREAM LISTING     PERIOD     38   STEP       30

 LAYER ROW COL. STREAM  RCH.  FLOW INTO     FLOW TO   FLOW OUT OF   OVRLND.     DIRECT     STREAM       STREAM     STREAM     STREAM   STREAMBED  STREAMBED
                SEG.NO.  NO.  STRM. RCH.    AQUIFER    STRM. RCH.    RUNOFF     PRECIP       ET          HEAD       DEPTH      WIDTH   CONDCTNC.   GRADIENT

   1    1    1     1     1    1.9000E+01  2.1427E-01   1.8786E+01  0.000E+00  0.000E+00  0.000E+00  1.09413E+03  1.082E+00  1.166E+01  5.249E-02  1.361E+00
   1    2    2     1     2    1.8786E+01  3.3054E-01   1.8455E+01  0.000E+00  0.000E+00  0.000E+00  1.08914E+03  1.077E+00  1.158E+01  8.107E-02  1.359E+00
   1    3    3     1     3    1.8455E+01  2.8064E-01   1.8175E+01  0.000E+00  0.000E+00  0.000E+00  1.08349E+03  1.072E+00  1.149E+01  6.892E-02  1.357E+00
   1    3    4     1     4    1.8175E+01  2.5740E-01   1.7917E+01  0.000E+00  0.000E+00  0.000E+00  1.07848E+03  1.068E+00  1.140E+01  6.328E-02  1.356E+00
   1    4    5     2     1    1.5917E+01  3.0542E-01   1.5612E+01  0.000E+00  0.000E+00  0.000E+00  1.07285E+03  9.157E-01  1.200E+01  7.800E-02  1.305E+00
   1    5    6     2     2    1.5612E+01  2.3438E-01   1.5377E+01  0.000E+00  0.000E+00  0.000E+00  1.06742E+03  9.063E-01  1.200E+01  6.000E-02  1.302E+00
   1    6    6     2     3    1.5377E+01  2.3388E-01   1.5143E+01  0.000E+00  0.000E+00  0.000E+00  1.06269E+03  8.980E-01  1.200E+01  6.000E-02  1.299E+00
   1    7    6     2     4    1.5143E+01  2.3338E-01   1.4910E+01  0.000E+00  0.000E+00  0.000E+00  1.05797E+03  8.897E-01  1.200E+01  6.000E-02  1.297E+00
   1    8    6     2     5    1.4910E+01  2.3289E-01   1.4677E+01  0.000E+00  0.000E+00  0.000E+00  1.05324E+03  8.814E-01  1.200E+01  6.000E-02  1.294E+00
   1    3    5     3     1    2.0000E+00  2.8252E-01   1.7175E+00  0.000E+00  0.000E+00  0.000E+00  1.07555E+03  1.909E+00  9.636E+00  7.227E-02  1.955E+00
   1    3    6     3     2    1.7175E+00  2.4905E-01   1.4684E+00  0.000E+00  0.000E+00  0.000E+00  1.07264E+03  1.727E+00  8.909E+00  6.682E-02  1.864E+00
   1    3    7     3     3    1.4684E+00  1.9718E-01   1.2712E+00  0.000E+00  0.000E+00  0.000E+00  1.06987E+03  1.555E+00  8.218E+00  5.547E-02  1.777E+00
   1    4    8     3     4    1.2712E+00  2.2567E-01   1.0456E+00  0.000E+00  0.000E+00  0.000E+00  1.06682E+03  1.364E+00  7.455E+00  6.709E-02  1.682E+00
   1    5    8     3     5    1.0456E+00  1.5790E-01   8.8768E-01  0.000E+00  0.000E+00  0.000E+00  1.06362E+03  1.164E+00  6.655E+00  4.991E-02  1.582E+00
   1    6    8     3     6    8.8768E-01  5.5980E-02   8.3170E-01  0.000E+00  0.000E+00  0.000E+00  1.06158E+03  1.036E+00  6.145E+00  1.844E-02  1.518E+00
   1    5   10     4     1    1.0000E+01  9.0919E-02   9.9091E+00  0.000E+00  0.000E+00  0.000E+00  1.07836E+03  6.368E-01  1.000E+01  2.500E-02  1.212E+00
   1    5    9     4     2    9.9091E+00  1.8158E-01   9.7275E+00  0.000E+00  0.000E+00  0.000E+00  1.07154E+03  6.315E-01  1.000E+01  5.000E-02  1.211E+00
   1    6    8     4     3    9.7275E+00  1.2689E-01   9.6006E+00  0.000E+00  0.000E+00  0.000E+00  1.06381E+03  6.256E-01  1.000E+01  3.500E-02  1.209E+00
   1    6    8     5     1    1.0432E+01  2.2686E-01   1.0205E+01  0.000E+00  0.000E+00  0.000E+00  1.05868E+03  6.790E-01  1.542E+01  6.166E-02  1.226E+00
   1    7    7     5     2    1.0205E+01  2.7894E-01   9.9265E+00  0.000E+00  0.000E+00  0.000E+00  1.05417E+03  6.732E-01  1.519E+01  7.594E-02  1.224E+00
   1    8    7     5     3    9.9265E+00  1.9221E-01   9.7343E+00  0.000E+00  0.000E+00  0.000E+00  1.04992E+03  6.676E-01  1.497E+01  5.241E-02  1.223E+00
   1    8    6     5     4    9.7343E+00  1.3577E-01   9.5985E+00  0.000E+00  0.000E+00  0.000E+00  1.04691E+03  6.637E-01  1.482E+01  3.706E-02  1.221E+00
   1    9    6     6     1    2.4276E+01  2.5176E-01   2.4024E+01  0.000E+00  0.000E+00  0.000E+00  1.04392E+03  1.196E+00  1.200E+01  6.000E-02  1.399E+00
   1   10    7     6     2    2.4024E+01  2.5131E-01   2.3773E+01  0.000E+00  0.000E+00  0.000E+00  1.03937E+03  1.188E+00  1.200E+01  6.000E-02  1.396E+00
   1   11    7     6     3    2.3773E+01  2.5086E-01   2.3522E+01  0.000E+00  0.000E+00  0.000E+00  1.03482E+03  1.181E+00  1.200E+01  6.000E-02  1.394E+00
   1   12    7     6     4    2.3522E+01  2.5041E-01   2.3271E+01  0.000E+00  0.000E+00  0.000E+00  1.03026E+03  1.173E+00  1.200E+01  6.000E-02  1.391E+00
   1   13    7     6     5    2.3271E+01  8.9829E-03   2.3262E+01  0.000E+00  0.000E+00  0.000E+00  1.02708E+03  1.170E+00  1.200E+01  2.400E-02  1.248E-01
   1   14    9     7     1    1.5000E+02  1.3614E+00   1.4864E+02  0.000E+00  0.000E+00  0.000E+00  1.03987E+03  2.288E+00  5.529E+01  5.593E-01  8.114E-01
   1   13    8     7     2    1.4864E+02  1.9407E+00   1.4670E+02  0.000E+00  0.000E+00  0.000E+00  1.03478E+03  2.279E+00  5.525E+01  6.148E-01  1.052E+00
   1   13    7     7     3    1.4670E+02  1.6664E+00   1.4503E+02  0.000E+00  0.000E+00  0.000E+00  1.02969E+03  2.269E+00  5.521E+01  5.584E-01  9.947E-01
   1   13    6     8     1    1.6829E+02  1.1085E+00   1.6719E+02  0.000E+00  0.000E+00  0.000E+00  1.02481E+03  2.937E+00  4.259E+01  4.340E-01  8.513E-01
   1   13    5     8     2    1.6719E+02  3.5418E-01   1.6683E+02  0.000E+00  0.000E+00  0.000E+00  1.01856E+03  2.933E+00  4.252E+01  4.333E-01  2.725E-01
   1   13    4     8     3    1.6683E+02 -1.8254E+00   1.6866E+02  0.000E+00  0.000E+00  0.000E+00  1.01231E+03  2.937E+00  4.259E+01  4.340E+00 -1.402E-01
   1   13    3     8     4    1.6866E+02 -3.3586E+00   1.7202E+02  0.000E+00  0.000E+00  0.000E+00  1.00608E+03  2.954E+00  4.284E+01  4.365E+00 -2.565E-01
   1   13    2     8     5    1.7202E+02 -2.5087E+00   1.7452E+02  0.000E+00  0.000E+00  0.000E+00  9.99848E+02  2.973E+00  4.311E+01  4.393E+00 -1.903E-01
   1   13    1     8     6    1.7452E+02 -1.9653E+00   1.7649E+02  0.000E+00  0.000E+00  0.000E+00  9.94863E+02  2.988E+00  4.332E+01  2.649E+00 -2.473E-01





UNSATURATED ZONE PACKAGE VOLUMETRIC BUDGET FOR  TIME STEP    30 STRESS PERIOD   38
  ------------------------------------------------------------------------------



     CUMULATIVE VOLUMES      L**3       RATES FOR THIS TIME STEP      L**3/T
     ------------------                 ------------------------

           IN:                                      IN:
           ---                                      ---
        INFILTRATION =  1387687299.6308          INFILTRATION =           0.8475

          OUT:                                     OUT:
          ----                                     ----
              UZF ET =  1273047520.0376                UZF ET =           0.7500
        UZF RECHARGE =   113793750.5339          UZF RECHARGE =           0.0002

            IN - OUT =      846029.0593              IN - OUT =       9.7298E-02

          STORAGE:                                 STORAGE:
          --------                                 --------
      STORAGE CHANGE =      846030.8443        STORAGE CHANGE =       9.7298E-02

 PERCENT DISCREPANCY IS DIFFERENCE BETWEEN IN-OUT MINUS CHANGE IN STORAGE
 DIVIDED BY THE AVERAGE OF IN AND OUT TIMES 100

 PERCENT DISCREPANCY =           0.00     PERCENT DISCREPANCY =           0.00






1
  VOLUMETRIC BUDGET FOR AGRICULTURAL FIELDS AT  END OF TIME STEP   30, STRESS PERIOD  38
  ------------------------------------------------------------------------------

     CUMULATIVE VOLUMES      L**3       RATES FOR THIS TIME STEP      L**3/T
     ------------------                 ------------------------

           IN:                                      IN:
           ---                                      ---
               AG WELLS  =  1305143552.0000                 AG WELLS  =           0.0000
      DIVERSION SEGMENTS =           0.0000        DIVERSION SEGMENTS =           0.0000
       IRRIGATION PONDS  =           0.0000         IRRIGATION PONDS  =           0.0000
           GW IRRIGATION =           0.0000             GW IRRIGATION =           0.0000
           SW IRRIGATION =           0.0000             SW IRRIGATION =           0.0000
        SYSTEM LOSSES GW =           0.0000          SYSTEM LOSSES GW =           0.0000
        SYSTEM LOSSES SW =           0.0000          SYSTEM LOSSES SW =           0.0000

                TOTAL IN =  1305143552.0000                  TOTAL IN =           0.0000

          OUT:                                     OUT:
          ----                                     ----
               AG WELLS  =           0.0000                 AG WELLS  =           0.0000
      DIVERSION SEGMENTS =           0.0000        DIVERSION SEGMENTS =           0.0000
       IRRIGATION PONDS  =           0.0000         IRRIGATION PONDS  =           0.0000
           GW IRRIGATION =  1305143552.0000             GW IRRIGATION =           0.0000
           SW IRRIGATION =           0.0000             SW IRRIGATION =           0.0000
        SYSTEM LOSSES GW =           0.0000          SYSTEM LOSSES GW =           0.0000
        SYSTEM LOSSES SW =           0.0000          SYSTEM LOSSES SW =           0.0000

               TOTAL OUT =  1305143552.0000                 TOTAL OUT =           0.0000

                IN - OUT =           0.0000                  IN - OUT =           0.0000

     PERCENT DISCREPANCY =           0.00         PERCENT DISCREPANCY =           0.00



1
  VOLUMETRIC BUDGET FOR ENTIRE MODEL AT END OF TIME STEP   30, STRESS PERIOD  38
  ------------------------------------------------------------------------------

     CUMULATIVE VOLUMES      L**3       RATES FOR THIS TIME STEP      L**3/T
     ------------------                 ------------------------

           IN:                                      IN:
           ---                                      ---
             STORAGE     =  1745728000.0000               STORAGE     =           5.7050
       CONSTANT HEAD     =           0.0000         CONSTANT HEAD     =           0.0000
     HEAD DEP BOUNDS     =    27844658.0000       HEAD DEP BOUNDS     =           0.2875
      STREAM LEAKAGE     =  1192790528.0000        STREAM LEAKAGE     =          12.1687
        UZF RECHARGE     =   113793784.0000          UZF RECHARGE     =       2.0243E-04
               GW ET     =           0.0000                 GW ET     =           0.0000
     SURFACE LEAKAGE     =           0.0000       SURFACE LEAKAGE     =           0.0000
           AG WELLS      =           0.0000             AG WELLS      =           0.0000

                TOTAL IN =  3080156928.0000                  TOTAL IN =          18.1615

          OUT:                                     OUT:
          ----                                     ----
             STORAGE     =   732115520.0000               STORAGE     =           8.2144
       CONSTANT HEAD     =           0.0000         CONSTANT HEAD     =           0.0000
     HEAD DEP BOUNDS     =    28473172.0000       HEAD DEP BOUNDS     =           0.2890
      STREAM LEAKAGE     =   996820032.0000        STREAM LEAKAGE     =           9.6580
        UZF RECHARGE     =           0.0000          UZF RECHARGE     =           0.0000
               GW ET     =    17607784.0000                 GW ET     =           0.0000
     SURFACE LEAKAGE     =           0.0000       SURFACE LEAKAGE     =           0.0000
           AG WELLS      =  1305143552.0000             AG WELLS      =           0.0000

               TOTAL OUT =  3080160256.0000                 TOTAL OUT =          18.1614

                IN - OUT =       -3328.0000                  IN - OUT =       1.3351E-05

     PERCENT DISCREPANCY =          -0.00         PERCENT DISCREPANCY =           0.00






         TIME SUMMARY AT END OF TIME STEP   30 IN STRESS PERIOD   38
                    SECONDS     MINUTES      HOURS       DAYS        YEARS
                    -----------------------------------------------------------
   TIME STEP LENGTH  87667.      1461.1      24.352      1.0147     2.77799E-03
 STRESS PERIOD TIME 2.63000E+06  43833.      730.56      30.440     8.33397E-02
         TOTAL TIME 9.73959E+07 1.62326E+06  27054.      1127.3      3.0863    
1
1
                            STRESS PERIOD NO.   39, LENGTH =   2630000.    
                            -----------------------------------------------

                              NUMBER OF TIME STEPS =    30

                               MULTIPLIER FOR DELT =     1.000

                            INITIAL TIME STEP SIZE =   87666.66    

 REUSING NON-PARAMETER GHB CELLS FROM LAST STRESS PERIOD

      2 GHB CELLS

 REUSING STREAM SEGMENT DATA FROM LAST STRESS PERIOD



            AREAL INFILTRATION RATE
 READING ON UNIT   19 WITH FORMAT: (FREE)              

            1           2           3           4           5           6           7           8           9          10
 ........................................................................................................................
   1   1.0000E-10  2.0000E-10   0.000       0.000       0.000       0.000       0.000       0.000       0.000       0.000    
   2   2.0000E-10  1.0000E-10  2.0000E-10   0.000       0.000      8.0000E-10  8.0000E-10  5.0000E-10   0.000       0.000    
   3    0.000      5.0000E-10  1.0000E-10  1.0000E-10  8.0000E-10  8.0000E-10  5.0000E-10  5.0000E-10   0.000       0.000    
   4   8.0000E-10  5.0000E-10  1.0000E-10  1.0000E-10  1.0000E-10  1.0000E-10  1.0000E-10  1.0000E-10  2.0000E-10   0.000    
   5   8.0000E-10  5.0000E-10  1.0000E-10  1.0000E-10  1.0000E-10  1.0000E-10  1.0000E-10  1.0000E-10  1.0000E-10  1.0000E-10
   6   8.0000E-10  5.0000E-10  5.0000E-10  2.0000E-10  2.0000E-10  1.0000E-10  1.0000E-10  1.0000E-10  1.0000E-10  5.0000E-10
   7   8.0000E-10  5.0000E-10  5.0000E-10  2.0000E-10  2.0000E-10  1.0000E-10  1.0000E-10  2.0000E-10  2.0000E-10   0.000    
   8    0.000      5.0000E-10  5.0000E-10  2.0000E-10  2.0000E-10  1.0000E-10  1.0000E-10  2.0000E-10  5.0000E-10   0.000    
   9    0.000      5.0000E-10  5.0000E-10  2.0000E-10  2.0000E-10  1.0000E-10  1.0000E-10  2.0000E-10  5.0000E-10   0.000    
  10    0.000      5.0000E-10  5.0000E-10  2.0000E-10  2.0000E-10  1.0000E-10  1.0000E-10  2.0000E-10  5.0000E-10  8.0000E-10
  11    0.000      1.0000E-10  1.0000E-10  1.0000E-10  1.0000E-10  1.0000E-10  1.0000E-10  2.0000E-10  5.0000E-10   0.000    
  12   1.0000E-10  1.0000E-10  1.0000E-10  1.0000E-10  1.0000E-10  1.0000E-10  1.0000E-10  1.0000E-10  2.0000E-10   0.000    
  13   1.0000E-10  1.0000E-10  2.0000E-10  2.0000E-10  2.0000E-10  2.0000E-10  2.0000E-10  1.0000E-10  1.0000E-10   0.000    
  14    0.000      2.0000E-10  5.0000E-10  5.0000E-10  5.0000E-10  5.0000E-10  5.0000E-10  2.0000E-10  1.0000E-10   0.000    
  15    0.000       0.000      8.0000E-10  8.0000E-10  8.0000E-10  8.0000E-10   0.000       0.000       0.000       0.000    

                  ET RATE =  5.000000E-10

 USING ET EXTINCTION DEPTH FROM PREVIOUS STRESS PERIOD. CURRENT PERIOD IS:      39

 USING EXTINCTION WATER CONTENT FROM PREVIOUS STRESS PERIOD. CURRENT PERIOD IS:      39

 USING AIR ENTRY PRESSURE FROM PREVIOUS STRESS PERIOD. CURRENT PERIOD IS:      39

 USING ROOT PRESSURE HEAD FROM PREVIOUS STRESS PERIOD. CURRENT PERIOD IS:      39

 USING ROOT ACTIVITY FROM PREVIOUS STRESS PERIOD. CURRENT PERIOD IS:      39

 PROCESSING AG STRESS PERIOD DATA

 READING AG STRESS PERIOD DATA

 READING IRRIGATION WELL

 NO IRRPOND OR REUSING IRRPOND DATA FROM LAST STRESS PERIOD

 END PROCESSING AG STRESS PERIOD DATA OPTIONS
 
 SOLVING FOR HEAD 
                                                   Max.-Head-Change                         Max.-Flux-Residual
  Residual-Control   Outer-Iter.   Inner-Iter.     Column Row Layer    Maximum-Head-Change  Column Row Layer    Maximum-Flux-Residual          L2-NORM 
          0                 1           2             4    7     1       0.1552808249E-01       4    7    1         0.8134362372E+00      0.2130605816E+01
          0                 2           2             4    7     1      -0.1509644388E-02       4    7    1        -0.8129965147E-01      0.2129886740E+00
          0                 3           1             4    7     1       0.1027236745E-03       4    7    1         0.5686670674E-02      0.1490220197E-01
          0                 4           1             4    7     1      -0.4082346077E-05       4    7    1        -0.2322922655E-03      0.6090350491E-03

    ------------------------------------------------
       NWT REQUIRED            4 OUTER ITERATIONS 
       AND A TOTAL OF          6 INNER ITERATIONS.
    ------------------------------------------------

 NO OUTPUT CONTROL FOR STRESS PERIOD   39   TIME STEP    1
 
 SOLVING FOR HEAD 
                                                   Max.-Head-Change                         Max.-Flux-Residual
  Residual-Control   Outer-Iter.   Inner-Iter.     Column Row Layer    Maximum-Head-Change  Column Row Layer    Maximum-Flux-Residual          L2-NORM 
          0                 1           2             4    7     1       0.1540216889E-01       4    7    1         0.8068091977E+00      0.2117057172E+01
          0                 2           2             4    7     1      -0.1497402967E-02       4    7    1        -0.8063730056E-01      0.2116344532E+00
          0                 3           1             4    7     1       0.1018907070E-03       4    7    1         0.5640341070E-02      0.1480748192E-01
          0                 4           1             4    7     1      -0.4049242862E-05       4    7    1        -0.2303997549E-03      0.6051524859E-03

    ------------------------------------------------
       NWT REQUIRED            4 OUTER ITERATIONS 
       AND A TOTAL OF          6 INNER ITERATIONS.
    ------------------------------------------------

 NO OUTPUT CONTROL FOR STRESS PERIOD   39   TIME STEP    2
 
 SOLVING FOR HEAD 
                                                   Max.-Head-Change                         Max.-Flux-Residual
  Residual-Control   Outer-Iter.   Inner-Iter.     Column Row Layer    Maximum-Head-Change  Column Row Layer    Maximum-Flux-Residual          L2-NORM 
          0                 1           2             4    7     1       0.1527797032E-01       4    7    1         0.8002734162E+00      0.2103667715E+01
          0                 2           2             4    7     1      -0.1485328284E-02       4    7    1        -0.7998407072E-01      0.2102961202E+00
          0                 3           1             4    7     1       0.1010690851E-03       4    7    1         0.5594649449E-02      0.1471383970E-01
          0                 4           1             4    7     1      -0.4016590833E-05       4    7    1        -0.2285333085E-03      0.6013330019E-03

    ------------------------------------------------
       NWT REQUIRED            4 OUTER ITERATIONS 
       AND A TOTAL OF          6 INNER ITERATIONS.
    ------------------------------------------------

 NO OUTPUT CONTROL FOR STRESS PERIOD   39   TIME STEP    3
 
 SOLVING FOR HEAD 
                                                   Max.-Head-Change                         Max.-Flux-Residual
  Residual-Control   Outer-Iter.   Inner-Iter.     Column Row Layer    Maximum-Head-Change  Column Row Layer    Maximum-Flux-Residual          L2-NORM 
          0                 1           2             4    7     1       0.1515518624E-01       4    7    1         0.7938119260E+00      0.2090434532E+01
          0                 2           2             4    7     1      -0.1473391120E-02       4    7    1        -0.7933826611E-01      0.2089733989E+00
          0                 3           1             4    7     1       0.1002568200E-03       4    7    1         0.5549477179E-02      0.1462130613E-01
          0                 4           1             4    7     1      -0.3984310320E-05       4    7    1        -0.2266880651E-03      0.5975497306E-03

    ------------------------------------------------
       NWT REQUIRED            4 OUTER ITERATIONS 
       AND A TOTAL OF          6 INNER ITERATIONS.
    ------------------------------------------------

 NO OUTPUT CONTROL FOR STRESS PERIOD   39   TIME STEP    4
 
 SOLVING FOR HEAD 
                                                   Max.-Head-Change                         Max.-Flux-Residual
  Residual-Control   Outer-Iter.   Inner-Iter.     Column Row Layer    Maximum-Head-Change  Column Row Layer    Maximum-Flux-Residual          L2-NORM 
          0                 1           2             4    7     1       0.1503405744E-01       4    7    1         0.7874384056E+00      0.2077354536E+01
          0                 2           2             4    7     1      -0.1461614884E-02       4    7    1        -0.7870125391E-01      0.2076660347E+00
          0                 3           1             4    7     1       0.9945550611E-04       4    7    1         0.5504919952E-02      0.1452986242E-01

    ------------------------------------------------
       NWT REQUIRED            3 OUTER ITERATIONS 
       AND A TOTAL OF          5 INNER ITERATIONS.
    ------------------------------------------------

 NO OUTPUT CONTROL FOR STRESS PERIOD   39   TIME STEP    5
 
 SOLVING FOR HEAD 
                                                   Max.-Head-Change                         Max.-Flux-Residual
  Residual-Control   Outer-Iter.   Inner-Iter.     Column Row Layer    Maximum-Head-Change  Column Row Layer    Maximum-Flux-Residual          L2-NORM 
          0                 1           2             4    7     1       0.1491437232E-01       4    7    1         0.7811411008E+00      0.2064425506E+01
          0                 2           2             4    7     1      -0.1449979006E-02       4    7    1        -0.7807185929E-01      0.2063737214E+00
          0                 3           1             4    7     1       0.9866374290E-04       4    7    1         0.5460895534E-02      0.1443948667E-01

    ------------------------------------------------
       NWT REQUIRED            3 OUTER ITERATIONS 
       AND A TOTAL OF          5 INNER ITERATIONS.
    ------------------------------------------------

 NO OUTPUT CONTROL FOR STRESS PERIOD   39   TIME STEP    6
 
 SOLVING FOR HEAD 
                                                   Max.-Head-Change                         Max.-Flux-Residual
  Residual-Control   Outer-Iter.   Inner-Iter.     Column Row Layer    Maximum-Head-Change  Column Row Layer    Maximum-Flux-Residual          L2-NORM 
          0                 1           2             4    7     1       0.1479614962E-01       4    7    1         0.7749209673E+00      0.2051642961E+01
          0                 2           2             4    7     1      -0.1438485306E-02       4    7    1        -0.7745017773E-01      0.2050960485E+00
          0                 3           1             4    7     1       0.9788165406E-04       4    7    1         0.5417410648E-02      0.1435007072E-01

    ------------------------------------------------
       NWT REQUIRED            3 OUTER ITERATIONS 
       AND A TOTAL OF          5 INNER ITERATIONS.
    ------------------------------------------------

 NO OUTPUT CONTROL FOR STRESS PERIOD   39   TIME STEP    7
 
 SOLVING FOR HEAD 
                                                   Max.-Head-Change                         Max.-Flux-Residual
  Residual-Control   Outer-Iter.   Inner-Iter.     Column Row Layer    Maximum-Head-Change  Column Row Layer    Maximum-Flux-Residual          L2-NORM 
          0                 1           2             4    7     1       0.1467949074E-01       4    7    1         0.7687839738E+00      0.2039001260E+01
          0                 2           2             4    7     1      -0.1427143643E-02       4    7    1        -0.7683680586E-01      0.2038324743E+00
          0                 3           1             4    7     1       0.9710991033E-04       4    7    1         0.5374506972E-02      0.1426169050E-01

    ------------------------------------------------
       NWT REQUIRED            3 OUTER ITERATIONS 
       AND A TOTAL OF          5 INNER ITERATIONS.
    ------------------------------------------------

 NO OUTPUT CONTROL FOR STRESS PERIOD   39   TIME STEP    8
 
 SOLVING FOR HEAD 
                                                   Max.-Head-Change                         Max.-Flux-Residual
  Residual-Control   Outer-Iter.   Inner-Iter.     Column Row Layer    Maximum-Head-Change  Column Row Layer    Maximum-Flux-Residual          L2-NORM 
          0                 1           2             4    7     1       0.1456423188E-01       4    7    1         0.7627207444E+00      0.2026504351E+01
          0                 2           2             4    7     1      -0.1415938092E-02       4    7    1        -0.7623080654E-01      0.2025833776E+00
          0                 3           1             4    7     1       0.9634742834E-04       4    7    1         0.5332118985E-02      0.1417432382E-01

    ------------------------------------------------
       NWT REQUIRED            3 OUTER ITERATIONS 
       AND A TOTAL OF          5 INNER ITERATIONS.
    ------------------------------------------------

 NO OUTPUT CONTROL FOR STRESS PERIOD   39   TIME STEP    9
 
 SOLVING FOR HEAD 
                                                   Max.-Head-Change                         Max.-Flux-Residual
  Residual-Control   Outer-Iter.   Inner-Iter.     Column Row Layer    Maximum-Head-Change  Column Row Layer    Maximum-Flux-Residual          L2-NORM 
          0                 1           2             4    7     1       0.1445034873E-01       4    7    1         0.7567301037E+00      0.2014156109E+01
          0                 2           2             4    7     1      -0.1404866289E-02       4    7    1        -0.7563206227E-01      0.2013491318E+00
          0                 3           1             4    7     1       0.9559404714E-04       4    7    1         0.5290238488E-02      0.1408796290E-01

    ------------------------------------------------
       NWT REQUIRED            3 OUTER ITERATIONS 
       AND A TOTAL OF          5 INNER ITERATIONS.
    ------------------------------------------------

 NO OUTPUT CONTROL FOR STRESS PERIOD   39   TIME STEP   10
 
 SOLVING FOR HEAD 
                                                   Max.-Head-Change                         Max.-Flux-Residual
  Residual-Control   Outer-Iter.   Inner-Iter.     Column Row Layer    Maximum-Head-Change  Column Row Layer    Maximum-Flux-Residual          L2-NORM 
          0                 1           2             4    7     1       0.1433781170E-01       4    7    1         0.7508107902E+00      0.2001934484E+01
          0                 2           2             4    7     1      -0.1393925358E-02       4    7    1        -0.7504044699E-01      0.2001274968E+00
          0                 3           1             4    7     1       0.9484957172E-04       4    7    1         0.5248856650E-02      0.1400250391E-01

    ------------------------------------------------
       NWT REQUIRED            3 OUTER ITERATIONS 
       AND A TOTAL OF          5 INNER ITERATIONS.
    ------------------------------------------------

 NO OUTPUT CONTROL FOR STRESS PERIOD   39   TIME STEP   11
 
 SOLVING FOR HEAD 
                                                   Max.-Head-Change                         Max.-Flux-Residual
  Residual-Control   Outer-Iter.   Inner-Iter.     Column Row Layer    Maximum-Head-Change  Column Row Layer    Maximum-Flux-Residual          L2-NORM 
          0                 1           2             4    7     1       0.1422673560E-01       4    7    1         0.7449685881E+00      0.1989862122E+01
          0                 2           2             4    7     1      -0.1383126462E-02       4    7    1        -0.7445653882E-01      0.1989208479E+00
          0                 3           1             4    7     1       0.9411476073E-04       4    7    1         0.5208013900E-02      0.1391809081E-01

    ------------------------------------------------
       NWT REQUIRED            3 OUTER ITERATIONS 
       AND A TOTAL OF          5 INNER ITERATIONS.
    ------------------------------------------------

 NO OUTPUT CONTROL FOR STRESS PERIOD   39   TIME STEP   12
 
 SOLVING FOR HEAD 
                                                   Max.-Head-Change                         Max.-Flux-Residual
  Residual-Control   Outer-Iter.   Inner-Iter.     Column Row Layer    Maximum-Head-Change  Column Row Layer    Maximum-Flux-Residual          L2-NORM 
          0                 1           2             4    7     1       0.1411681822E-01       4    7    1         0.7391874976E+00      0.1977918268E+01
          0                 2           2             4    7     1      -0.1372440217E-02       4    7    1        -0.7387873858E-01      0.1977270124E+00
          0                 3           1             4    7     1       0.9338761465E-04       4    7    1         0.5167598371E-02      0.1383457684E-01

    ------------------------------------------------
       NWT REQUIRED            3 OUTER ITERATIONS 
       AND A TOTAL OF          5 INNER ITERATIONS.
    ------------------------------------------------

 NO OUTPUT CONTROL FOR STRESS PERIOD   39   TIME STEP   13
 
 SOLVING FOR HEAD 
                                                   Max.-Head-Change                         Max.-Flux-Residual
  Residual-Control   Outer-Iter.   Inner-Iter.     Column Row Layer    Maximum-Head-Change  Column Row Layer    Maximum-Flux-Residual          L2-NORM 
          0                 1           2             4    7     1       0.1400844639E-01       4    7    1         0.7334884374E+00      0.1966106025E+01
          0                 2           2             4    7     1      -0.1361904232E-02       4    7    1        -0.7330913711E-01      0.1965463299E+00
          0                 3           1             4    7     1       0.9267069332E-04       4    7    1         0.5127756321E-02      0.1375198457E-01

    ------------------------------------------------
       NWT REQUIRED            3 OUTER ITERATIONS 
       AND A TOTAL OF          5 INNER ITERATIONS.
    ------------------------------------------------

 NO OUTPUT CONTROL FOR STRESS PERIOD   39   TIME STEP   14
 
 SOLVING FOR HEAD 
                                                   Max.-Head-Change                         Max.-Flux-Residual
  Residual-Control   Outer-Iter.   Inner-Iter.     Column Row Layer    Maximum-Head-Change  Column Row Layer    Maximum-Flux-Residual          L2-NORM 
          0                 1           2             4    7     1       0.1390131992E-01       4    7    1         0.7278548751E+00      0.1954431754E+01
          0                 2           2             4    7     1      -0.1351489323E-02       4    7    1        -0.7274608196E-01      0.1953794501E+00
          0                 3           1             4    7     1       0.9196201095E-04       4    7    1         0.5088372203E-02      0.1367035990E-01

    ------------------------------------------------
       NWT REQUIRED            3 OUTER ITERATIONS 
       AND A TOTAL OF          5 INNER ITERATIONS.
    ------------------------------------------------

 NO OUTPUT CONTROL FOR STRESS PERIOD   39   TIME STEP   15
 
 SOLVING FOR HEAD 
                                                   Max.-Head-Change                         Max.-Flux-Residual
  Residual-Control   Outer-Iter.   Inner-Iter.     Column Row Layer    Maximum-Head-Change  Column Row Layer    Maximum-Flux-Residual          L2-NORM 
          0                 1           2             4    7     1       0.1379541564E-01       4    7    1         0.7222858826E+00      0.1942888045E+01
          0                 2           2             4    7     1      -0.1341193238E-02       4    7    1        -0.7218948039E-01      0.1942256131E+00
          0                 3           1             4    7     1       0.9126141380E-04       4    7    1         0.5049439463E-02      0.1358973669E-01

    ------------------------------------------------
       NWT REQUIRED            3 OUTER ITERATIONS 
       AND A TOTAL OF          5 INNER ITERATIONS.
    ------------------------------------------------

 NO OUTPUT CONTROL FOR STRESS PERIOD   39   TIME STEP   16
 
 SOLVING FOR HEAD 
                                                   Max.-Head-Change                         Max.-Flux-Residual
  Residual-Control   Outer-Iter.   Inner-Iter.     Column Row Layer    Maximum-Head-Change  Column Row Layer    Maximum-Flux-Residual          L2-NORM 
          0                 1           2             4    7     1       0.1369070995E-01       4    7    1         0.7167802585E+00      0.1931461384E+01
          0                 2           2             4    7     1      -0.1331013681E-02       4    7    1        -0.7163921236E-01      0.1930834725E+00
          0                 3           1             4    7     1       0.9056874604E-04       4    7    1         0.5010949760E-02      0.1350974349E-01

    ------------------------------------------------
       NWT REQUIRED            3 OUTER ITERATIONS 
       AND A TOTAL OF          5 INNER ITERATIONS.
    ------------------------------------------------

 NO OUTPUT CONTROL FOR STRESS PERIOD   39   TIME STEP   17
 
 SOLVING FOR HEAD 
                                                   Max.-Head-Change                         Max.-Flux-Residual
  Residual-Control   Outer-Iter.   Inner-Iter.     Column Row Layer    Maximum-Head-Change  Column Row Layer    Maximum-Flux-Residual          L2-NORM 
          0                 1           2             4    7     1       0.1358732156E-01       4    7    1         0.7113440966E+00      0.1920168046E+01
          0                 2           2             4    7     1      -0.1320962194E-02       4    7    1        -0.7109588689E-01      0.1919546698E+00
          0                 3           1             4    7     1       0.8988479236E-04       4    7    1         0.4972945666E-02      0.1343078758E-01

    ------------------------------------------------
       NWT REQUIRED            3 OUTER ITERATIONS 
       AND A TOTAL OF          5 INNER ITERATIONS.
    ------------------------------------------------

 NO OUTPUT CONTROL FOR STRESS PERIOD   39   TIME STEP   18
 
 SOLVING FOR HEAD 
                                                   Max.-Head-Change                         Max.-Flux-Residual
  Residual-Control   Outer-Iter.   Inner-Iter.     Column Row Layer    Maximum-Head-Change  Column Row Layer    Maximum-Flux-Residual          L2-NORM 
          0                 1           2             4    7     1       0.1348522106E-01       4    7    1         0.7059762354E+00      0.1908998637E+01
          0                 2           2             4    7     1      -0.1311035916E-02       4    7    1        -0.7055938790E-01      0.1908382291E+00
          0                 3           1             4    7     1       0.8920935856E-04       4    7    1         0.4935419056E-02      0.1335266709E-01

    ------------------------------------------------
       NWT REQUIRED            3 OUTER ITERATIONS 
       AND A TOTAL OF          5 INNER ITERATIONS.
    ------------------------------------------------

 NO OUTPUT CONTROL FOR STRESS PERIOD   39   TIME STEP   19
 
 SOLVING FOR HEAD 
                                                   Max.-Head-Change                         Max.-Flux-Residual
  Residual-Control   Outer-Iter.   Inner-Iter.     Column Row Layer    Maximum-Head-Change  Column Row Layer    Maximum-Flux-Residual          L2-NORM 
          0                 1           2             4    7     1       0.1338424976E-01       4    7    1         0.7006678291E+00      0.1897949233E+01
          0                 2           2             4    7     1      -0.1301219421E-02       4    7    1        -0.7002883128E-01      0.1897338454E+00
          0                 3           1             4    7     1       0.8854139558E-04       4    7    1         0.4898308116E-02      0.1327542525E-01

    ------------------------------------------------
       NWT REQUIRED            3 OUTER ITERATIONS 
       AND A TOTAL OF          5 INNER ITERATIONS.
    ------------------------------------------------

 NO OUTPUT CONTROL FOR STRESS PERIOD   39   TIME STEP   20
 
 SOLVING FOR HEAD 
                                                   Max.-Head-Change                         Max.-Flux-Residual
  Residual-Control   Outer-Iter.   Inner-Iter.     Column Row Layer    Maximum-Head-Change  Column Row Layer    Maximum-Flux-Residual          L2-NORM 
          0                 1           2             4    7     1       0.1328439158E-01       4    7    1         0.6954179702E+00      0.1887020542E+01
          0                 2           2             4    7     1      -0.1291511144E-02       4    7    1        -0.6950412631E-01      0.1886414559E+00
          0                 3           1             4    7     1       0.8788079504E-04       4    7    1         0.4861606441E-02      0.1319902048E-01

    ------------------------------------------------
       NWT REQUIRED            3 OUTER ITERATIONS 
       AND A TOTAL OF          5 INNER ITERATIONS.
    ------------------------------------------------

 NO OUTPUT CONTROL FOR STRESS PERIOD   39   TIME STEP   21
 
 SOLVING FOR HEAD 
                                                   Max.-Head-Change                         Max.-Flux-Residual
  Residual-Control   Outer-Iter.   Inner-Iter.     Column Row Layer    Maximum-Head-Change  Column Row Layer    Maximum-Flux-Residual          L2-NORM 
          0                 1           2             4    7     1       0.1318576046E-01       4    7    1         0.6902331433E+00      0.1876210544E+01
          0                 2           2             4    7     1      -0.1281922165E-02       4    7    1        -0.6898592110E-01      0.1875609530E+00
          0                 3           1             4    7     1       0.8722831298E-04       4    7    1         0.4825359444E-02      0.1312342430E-01

    ------------------------------------------------
       NWT REQUIRED            3 OUTER ITERATIONS 
       AND A TOTAL OF          5 INNER ITERATIONS.
    ------------------------------------------------

 NO OUTPUT CONTROL FOR STRESS PERIOD   39   TIME STEP   22
 
 SOLVING FOR HEAD 
                                                   Max.-Head-Change                         Max.-Flux-Residual
  Residual-Control   Outer-Iter.   Inner-Iter.     Column Row Layer    Maximum-Head-Change  Column Row Layer    Maximum-Flux-Residual          L2-NORM 
          0                 1           2             4    7     1       0.1308819907E-01       4    7    1         0.6851046178E+00      0.1865516725E+01
          0                 2           2             4    7     1      -0.1272437185E-02       4    7    1        -0.6847334309E-01      0.1864920475E+00
          0                 3           1             4    7     1       0.8658290733E-04       4    7    1         0.4789506038E-02      0.1304863871E-01

    ------------------------------------------------
       NWT REQUIRED            3 OUTER ITERATIONS 
       AND A TOTAL OF          5 INNER ITERATIONS.
    ------------------------------------------------

 NO OUTPUT CONTROL FOR STRESS PERIOD   39   TIME STEP   23
 
 SOLVING FOR HEAD 
                                                   Max.-Head-Change                         Max.-Flux-Residual
  Residual-Control   Outer-Iter.   Inner-Iter.     Column Row Layer    Maximum-Head-Change  Column Row Layer    Maximum-Flux-Residual          L2-NORM 
          0                 1           2             4    7     1       0.1299182575E-01       4    7    1         0.6800388757E+00      0.1854934826E+01
          0                 2           2             4    7     1      -0.1263067712E-02       4    7    1        -0.6796704012E-01      0.1854343399E+00
          0                 3           1             4    7     1       0.8594536161E-04       4    7    1         0.4754091571E-02      0.1297464334E-01

    ------------------------------------------------
       NWT REQUIRED            3 OUTER ITERATIONS 
       AND A TOTAL OF          5 INNER ITERATIONS.
    ------------------------------------------------

 NO OUTPUT CONTROL FOR STRESS PERIOD   39   TIME STEP   24
 
 SOLVING FOR HEAD 
                                                   Max.-Head-Change                         Max.-Flux-Residual
  Residual-Control   Outer-Iter.   Inner-Iter.     Column Row Layer    Maximum-Head-Change  Column Row Layer    Maximum-Flux-Residual          L2-NORM 
          0                 1           2             4    7     1       0.1289661729E-01       4    7    1         0.6750347331E+00      0.1844471433E+01
          0                 2           2             4    7     1      -0.1253811487E-02       4    7    1        -0.6746689386E-01      0.1843884928E+00
          0                 3           1             4    7     1       0.8531552208E-04       4    7    1         0.4719107755E-02      0.1290148418E-01

    ------------------------------------------------
       NWT REQUIRED            3 OUTER ITERATIONS 
       AND A TOTAL OF          5 INNER ITERATIONS.
    ------------------------------------------------

 NO OUTPUT CONTROL FOR STRESS PERIOD   39   TIME STEP   25
 
 SOLVING FOR HEAD 
                                                   Max.-Head-Change                         Max.-Flux-Residual
  Residual-Control   Outer-Iter.   Inner-Iter.     Column Row Layer    Maximum-Head-Change  Column Row Layer    Maximum-Flux-Residual          L2-NORM 
          0                 1           2             4    7     1       0.1280241779E-01       4    7    1         0.6700836657E+00      0.1834113612E+01
          0                 2           2             4    7     1      -0.1244653355E-02       4    7    1        -0.6697205229E-01      0.1833531886E+00
          0                 3           1             4    7     1       0.8469235663E-04       4    7    1         0.4684494966E-02      0.1282905749E-01

    ------------------------------------------------
       NWT REQUIRED            3 OUTER ITERATIONS 
       AND A TOTAL OF          5 INNER ITERATIONS.
    ------------------------------------------------

 NO OUTPUT CONTROL FOR STRESS PERIOD   39   TIME STEP   26
 
 SOLVING FOR HEAD 
                                                   Max.-Head-Change                         Max.-Flux-Residual
  Residual-Control   Outer-Iter.   Inner-Iter.     Column Row Layer    Maximum-Head-Change  Column Row Layer    Maximum-Flux-Residual          L2-NORM 
          0                 1           2             4    7     1       0.1270934561E-01       4    7    1         0.6651922316E+00      0.1823875518E+01
          0                 2           2             4    7     1      -0.1235604822E-02       4    7    1        -0.6648317092E-01      0.1823298578E+00
          0                 3           1             4    7     1       0.8407664933E-04       4    7    1         0.4650299105E-02      0.1275747948E-01

    ------------------------------------------------
       NWT REQUIRED            3 OUTER ITERATIONS 
       AND A TOTAL OF          5 INNER ITERATIONS.
    ------------------------------------------------

 NO OUTPUT CONTROL FOR STRESS PERIOD   39   TIME STEP   27
 
 SOLVING FOR HEAD 
                                                   Max.-Head-Change                         Max.-Flux-Residual
  Residual-Control   Outer-Iter.   Inner-Iter.     Column Row Layer    Maximum-Head-Change  Column Row Layer    Maximum-Flux-Residual          L2-NORM 
          0                 1           2             4    7     1       0.1261724391E-01       4    7    1         0.6603519265E+00      0.1813734585E+01
          0                 2           2             4    7     1      -0.1226650640E-02       4    7    1        -0.6599939975E-01      0.1813162221E+00
          0                 3           1             4    7     1       0.8346736204E-04       4    7    1         0.4616460665E-02      0.1268656742E-01

    ------------------------------------------------
       NWT REQUIRED            3 OUTER ITERATIONS 
       AND A TOTAL OF          5 INNER ITERATIONS.
    ------------------------------------------------

 NO OUTPUT CONTROL FOR STRESS PERIOD   39   TIME STEP   28
 
 SOLVING FOR HEAD 
                                                   Max.-Head-Change                         Max.-Flux-Residual
  Residual-Control   Outer-Iter.   Inner-Iter.     Column Row Layer    Maximum-Head-Change  Column Row Layer    Maximum-Flux-Residual          L2-NORM 
          0                 1           2             4    7     1       0.1252623671E-01       4    7    1         0.6555692594E+00      0.1803709835E+01
          0                 2           2             4    7     1      -0.1217802867E-02       4    7    1        -0.6552138935E-01      0.1803142264E+00
          0                 3           1             4    7     1       0.8286531494E-04       4    7    1         0.4583025176E-02      0.1261647477E-01

    ------------------------------------------------
       NWT REQUIRED            3 OUTER ITERATIONS 
       AND A TOTAL OF          5 INNER ITERATIONS.
    ------------------------------------------------

 NO OUTPUT CONTROL FOR STRESS PERIOD   39   TIME STEP   29
 
 SOLVING FOR HEAD 
                                                   Max.-Head-Change                         Max.-Flux-Residual
  Residual-Control   Outer-Iter.   Inner-Iter.     Column Row Layer    Maximum-Head-Change  Column Row Layer    Maximum-Flux-Residual          L2-NORM 
          0                 1           2             4    7     1       0.1243630280E-01       4    7    1         0.6508433403E+00      0.1793788409E+01
          0                 2           2             4    7     1      -0.1209059440E-02       4    7    1        -0.6504905074E-01      0.1793225704E+00
          0                 3           1             4    7     1       0.8227036827E-04       4    7    1         0.4549986413E-02      0.1254712522E-01

    ------------------------------------------------
       NWT REQUIRED            3 OUTER ITERATIONS 
       AND A TOTAL OF          5 INNER ITERATIONS.
    ------------------------------------------------

 NO OUTPUT CONTROL FOR STRESS PERIOD   39   TIME STEP   30



 STREAM LISTING     PERIOD     39   STEP       30

 LAYER ROW COL. STREAM  RCH.  FLOW INTO     FLOW TO   FLOW OUT OF   OVRLND.     DIRECT     STREAM       STREAM     STREAM     STREAM   STREAMBED  STREAMBED
                SEG.NO.  NO.  STRM. RCH.    AQUIFER    STRM. RCH.    RUNOFF     PRECIP       ET          HEAD       DEPTH      WIDTH   CONDCTNC.   GRADIENT

   1    1    1     1     1    1.9000E+01  2.1427E-01   1.8786E+01  0.000E+00  0.000E+00  0.000E+00  1.09413E+03  1.082E+00  1.166E+01  5.249E-02  1.361E+00
   1    2    2     1     2    1.8786E+01  3.3054E-01   1.8455E+01  0.000E+00  0.000E+00  0.000E+00  1.08914E+03  1.077E+00  1.158E+01  8.107E-02  1.359E+00
   1    3    3     1     3    1.8455E+01  2.8064E-01   1.8175E+01  0.000E+00  0.000E+00  0.000E+00  1.08349E+03  1.072E+00  1.149E+01  6.892E-02  1.357E+00
   1    3    4     1     4    1.8175E+01  2.5740E-01   1.7917E+01  0.000E+00  0.000E+00  0.000E+00  1.07848E+03  1.068E+00  1.140E+01  6.328E-02  1.356E+00
   1    4    5     2     1    1.5917E+01  3.0542E-01   1.5612E+01  0.000E+00  0.000E+00  0.000E+00  1.07285E+03  9.157E-01  1.200E+01  7.800E-02  1.305E+00
   1    5    6     2     2    1.5612E+01  2.3438E-01   1.5377E+01  0.000E+00  0.000E+00  0.000E+00  1.06742E+03  9.063E-01  1.200E+01  6.000E-02  1.302E+00
   1    6    6     2     3    1.5377E+01  2.3388E-01   1.5143E+01  0.000E+00  0.000E+00  0.000E+00  1.06269E+03  8.980E-01  1.200E+01  6.000E-02  1.299E+00
   1    7    6     2     4    1.5143E+01  2.3338E-01   1.4910E+01  0.000E+00  0.000E+00  0.000E+00  1.05797E+03  8.897E-01  1.200E+01  6.000E-02  1.297E+00
   1    8    6     2     5    1.4910E+01  2.3289E-01   1.4677E+01  0.000E+00  0.000E+00  0.000E+00  1.05324E+03  8.814E-01  1.200E+01  6.000E-02  1.294E+00
   1    3    5     3     1    2.0000E+00  2.8252E-01   1.7175E+00  0.000E+00  0.000E+00  0.000E+00  1.07555E+03  1.909E+00  9.636E+00  7.227E-02  1.955E+00
   1    3    6     3     2    1.7175E+00  2.4905E-01   1.4684E+00  0.000E+00  0.000E+00  0.000E+00  1.07264E+03  1.727E+00  8.909E+00  6.682E-02  1.864E+00
   1    3    7     3     3    1.4684E+00  1.9718E-01   1.2712E+00  0.000E+00  0.000E+00  0.000E+00  1.06987E+03  1.555E+00  8.218E+00  5.547E-02  1.777E+00
   1    4    8     3     4    1.2712E+00  2.2567E-01   1.0456E+00  0.000E+00  0.000E+00  0.000E+00  1.06682E+03  1.364E+00  7.455E+00  6.709E-02  1.682E+00
   1    5    8     3     5    1.0456E+00  1.5790E-01   8.8768E-01  0.000E+00  0.000E+00  0.000E+00  1.06362E+03  1.164E+00  6.655E+00  4.991E-02  1.582E+00
   1    6    8     3     6    8.8768E-01  5.5980E-02   8.3170E-01  0.000E+00  0.000E+00  0.000E+00  1.06158E+03  1.036E+00  6.145E+00  1.844E-02  1.518E+00
   1    5   10     4     1    1.0000E+01  9.0919E-02   9.9091E+00  0.000E+00  0.000E+00  0.000E+00  1.07836E+03  6.368E-01  1.000E+01  2.500E-02  1.212E+00
   1    5    9     4     2    9.9091E+00  1.8158E-01   9.7275E+00  0.000E+00  0.000E+00  0.000E+00  1.07154E+03  6.315E-01  1.000E+01  5.000E-02  1.211E+00
   1    6    8     4     3    9.7275E+00  1.2689E-01   9.6006E+00  0.000E+00  0.000E+00  0.000E+00  1.06381E+03  6.256E-01  1.000E+01  3.500E-02  1.209E+00
   1    6    8     5     1    1.0432E+01  2.2686E-01   1.0205E+01  0.000E+00  0.000E+00  0.000E+00  1.05868E+03  6.790E-01  1.542E+01  6.166E-02  1.226E+00
   1    7    7     5     2    1.0205E+01  2.7894E-01   9.9265E+00  0.000E+00  0.000E+00  0.000E+00  1.05417E+03  6.732E-01  1.519E+01  7.594E-02  1.224E+00
   1    8    7     5     3    9.9265E+00  1.9221E-01   9.7343E+00  0.000E+00  0.000E+00  0.000E+00  1.04992E+03  6.676E-01  1.497E+01  5.241E-02  1.223E+00
   1    8    6     5     4    9.7343E+00  1.3577E-01   9.5985E+00  0.000E+00  0.000E+00  0.000E+00  1.04691E+03  6.637E-01  1.482E+01  3.706E-02  1.221E+00
   1    9    6     6     1    2.4276E+01  2.5176E-01   2.4024E+01  0.000E+00  0.000E+00  0.000E+00  1.04392E+03  1.196E+00  1.200E+01  6.000E-02  1.399E+00
   1   10    7     6     2    2.4024E+01  2.5131E-01   2.3773E+01  0.000E+00  0.000E+00  0.000E+00  1.03937E+03  1.188E+00  1.200E+01  6.000E-02  1.396E+00
   1   11    7     6     3    2.3773E+01  2.5086E-01   2.3522E+01  0.000E+00  0.000E+00  0.000E+00  1.03482E+03  1.181E+00  1.200E+01  6.000E-02  1.394E+00
   1   12    7     6     4    2.3522E+01  2.5041E-01   2.3271E+01  0.000E+00  0.000E+00  0.000E+00  1.03026E+03  1.173E+00  1.200E+01  6.000E-02  1.391E+00
   1   13    7     6     5    2.3271E+01  9.5306E-03   2.3262E+01  0.000E+00  0.000E+00  0.000E+00  1.02708E+03  1.170E+00  1.200E+01  2.400E-02  1.324E-01
   1   14    9     7     1    1.5000E+02  1.3633E+00   1.4864E+02  0.000E+00  0.000E+00  0.000E+00  1.03987E+03  2.288E+00  5.529E+01  5.593E-01  8.125E-01
   1   13    8     7     2    1.4864E+02  1.9475E+00   1.4669E+02  0.000E+00  0.000E+00  0.000E+00  1.03478E+03  2.279E+00  5.525E+01  6.148E-01  1.056E+00
   1   13    7     7     3    1.4669E+02  1.6791E+00   1.4501E+02  0.000E+00  0.000E+00  0.000E+00  1.02969E+03  2.269E+00  5.521E+01  5.584E-01  1.002E+00
   1   13    6     8     1    1.6827E+02  1.1200E+00   1.6715E+02  0.000E+00  0.000E+00  0.000E+00  1.02481E+03  2.937E+00  4.259E+01  4.340E-01  8.602E-01
   1   13    5     8     2    1.6715E+02  3.6355E-01   1.6679E+02  0.000E+00  0.000E+00  0.000E+00  1.01856E+03  2.932E+00  4.252E+01  4.333E-01  2.797E-01
   1   13    4     8     3    1.6679E+02 -1.7974E+00   1.6859E+02  0.000E+00  0.000E+00  0.000E+00  1.01231E+03  2.937E+00  4.259E+01  4.340E+00 -1.381E-01
   1   13    3     8     4    1.6859E+02 -3.3421E+00   1.7193E+02  0.000E+00  0.000E+00  0.000E+00  1.00608E+03  2.954E+00  4.283E+01  4.365E+00 -2.552E-01
   1   13    2     8     5    1.7193E+02 -2.5043E+00   1.7443E+02  0.000E+00  0.000E+00  0.000E+00  9.99848E+02  2.973E+00  4.311E+01  4.393E+00 -1.900E-01
   1   13    1     8     6    1.7443E+02 -1.9642E+00   1.7640E+02  0.000E+00  0.000E+00  0.000E+00  9.94862E+02  2.987E+00  4.331E+01  2.648E+00 -2.472E-01





UNSATURATED ZONE PACKAGE VOLUMETRIC BUDGET FOR  TIME STEP    30 STRESS PERIOD   39
  ------------------------------------------------------------------------------



     CUMULATIVE VOLUMES      L**3       RATES FOR THIS TIME STEP      L**3/T
     ------------------                 ------------------------

           IN:                                      IN:
           ---                                      ---
        INFILTRATION =  1389916224.5035          INFILTRATION =           0.8475

          OUT:                                     OUT:
          ----                                     ----
              UZF ET =  1275020019.9151                UZF ET =           0.7500
        UZF RECHARGE =   113794226.7668          UZF RECHARGE =           0.0002

            IN - OUT =     1101977.8216              IN - OUT =       9.7337E-02

          STORAGE:                                 STORAGE:
          --------                                 --------
      STORAGE CHANGE =     1101979.6286        STORAGE CHANGE =       9.7337E-02

 PERCENT DISCREPANCY IS DIFFERENCE BETWEEN IN-OUT MINUS CHANGE IN STORAGE
 DIVIDED BY THE AVERAGE OF IN AND OUT TIMES 100

 PERCENT DISCREPANCY =           0.00     PERCENT DISCREPANCY =           0.00






1
  VOLUMETRIC BUDGET FOR AGRICULTURAL FIELDS AT  END OF TIME STEP   30, STRESS PERIOD  39
  ------------------------------------------------------------------------------

     CUMULATIVE VOLUMES      L**3       RATES FOR THIS TIME STEP      L**3/T
     ------------------                 ------------------------

           IN:                                      IN:
           ---                                      ---
               AG WELLS  =  1305143552.0000                 AG WELLS  =           0.0000
      DIVERSION SEGMENTS =           0.0000        DIVERSION SEGMENTS =           0.0000
       IRRIGATION PONDS  =           0.0000         IRRIGATION PONDS  =           0.0000
           GW IRRIGATION =           0.0000             GW IRRIGATION =           0.0000
           SW IRRIGATION =           0.0000             SW IRRIGATION =           0.0000
        SYSTEM LOSSES GW =           0.0000          SYSTEM LOSSES GW =           0.0000
        SYSTEM LOSSES SW =           0.0000          SYSTEM LOSSES SW =           0.0000

                TOTAL IN =  1305143552.0000                  TOTAL IN =           0.0000

          OUT:                                     OUT:
          ----                                     ----
               AG WELLS  =           0.0000                 AG WELLS  =           0.0000
      DIVERSION SEGMENTS =           0.0000        DIVERSION SEGMENTS =           0.0000
       IRRIGATION PONDS  =           0.0000         IRRIGATION PONDS  =           0.0000
           GW IRRIGATION =  1305143552.0000             GW IRRIGATION =           0.0000
           SW IRRIGATION =           0.0000             SW IRRIGATION =           0.0000
        SYSTEM LOSSES GW =           0.0000          SYSTEM LOSSES GW =           0.0000
        SYSTEM LOSSES SW =           0.0000          SYSTEM LOSSES SW =           0.0000

               TOTAL OUT =  1305143552.0000                 TOTAL OUT =           0.0000

                IN - OUT =           0.0000                  IN - OUT =           0.0000

     PERCENT DISCREPANCY =           0.00         PERCENT DISCREPANCY =           0.00



1
  VOLUMETRIC BUDGET FOR ENTIRE MODEL AT END OF TIME STEP   30, STRESS PERIOD  39
  ------------------------------------------------------------------------------

     CUMULATIVE VOLUMES      L**3       RATES FOR THIS TIME STEP      L**3/T
     ------------------                 ------------------------

           IN:                                      IN:
           ---                                      ---
             STORAGE     =  1759348608.0000               STORAGE     =           4.7233
       CONSTANT HEAD     =           0.0000         CONSTANT HEAD     =           0.0000
     HEAD DEP BOUNDS     =    28600962.0000       HEAD DEP BOUNDS     =           0.2876
      STREAM LEAKAGE     =  1224852608.0000        STREAM LEAKAGE     =          12.2115
        UZF RECHARGE     =   113794264.0000          UZF RECHARGE     =       1.6321E-04
               GW ET     =           0.0000                 GW ET     =           0.0000
     SURFACE LEAKAGE     =           0.0000       SURFACE LEAKAGE     =           0.0000
           AG WELLS      =           0.0000             AG WELLS      =           0.0000

                TOTAL IN =  3126596352.0000                  TOTAL IN =          17.2226

          OUT:                                     OUT:
          ----                                     ----
             STORAGE     =   752467712.0000               STORAGE     =           7.3264
       CONSTANT HEAD     =           0.0000         CONSTANT HEAD     =           0.0000
     HEAD DEP BOUNDS     =    29233138.0000       HEAD DEP BOUNDS     =           0.2889
      STREAM LEAKAGE     =  1022150016.0000        STREAM LEAKAGE     =           9.6080
        UZF RECHARGE     =           0.0000          UZF RECHARGE     =           0.0000
               GW ET     =    17607784.0000                 GW ET     =           0.0000
     SURFACE LEAKAGE     =           0.0000       SURFACE LEAKAGE     =           0.0000
           AG WELLS      =  1305143552.0000             AG WELLS      =           0.0000

               TOTAL OUT =  3126602240.0000                 TOTAL OUT =          17.2234

                IN - OUT =       -5888.0000                  IN - OUT =      -7.3814E-04

     PERCENT DISCREPANCY =          -0.00         PERCENT DISCREPANCY =          -0.00






         TIME SUMMARY AT END OF TIME STEP   30 IN STRESS PERIOD   39
                    SECONDS     MINUTES      HOURS       DAYS        YEARS
                    -----------------------------------------------------------
   TIME STEP LENGTH  87667.      1461.1      24.352      1.0147     2.77799E-03
 STRESS PERIOD TIME 2.63000E+06  43833.      730.56      30.440     8.33397E-02
         TOTAL TIME 1.00026E+08 1.66710E+06  27785.      1157.7      3.1696    
1
1
                            STRESS PERIOD NO.   40, LENGTH =   2630000.    
                            -----------------------------------------------

                              NUMBER OF TIME STEPS =    30

                               MULTIPLIER FOR DELT =     1.000

                            INITIAL TIME STEP SIZE =   87666.66    

 REUSING NON-PARAMETER GHB CELLS FROM LAST STRESS PERIOD

      2 GHB CELLS

 REUSING STREAM SEGMENT DATA FROM LAST STRESS PERIOD



            AREAL INFILTRATION RATE
 READING ON UNIT   19 WITH FORMAT: (FREE)              

            1           2           3           4           5           6           7           8           9          10
 ........................................................................................................................
   1   1.0000E-10  2.0000E-10   0.000       0.000       0.000       0.000       0.000       0.000       0.000       0.000    
   2   2.0000E-10  1.0000E-10  2.0000E-10   0.000       0.000      8.0000E-10  8.0000E-10  5.0000E-10   0.000       0.000    
   3    0.000      5.0000E-10  1.0000E-10  1.0000E-10  8.0000E-10  8.0000E-10  5.0000E-10  5.0000E-10   0.000       0.000    
   4   8.0000E-10  5.0000E-10  1.0000E-10  1.0000E-10  1.0000E-10  1.0000E-10  1.0000E-10  1.0000E-10  2.0000E-10   0.000    
   5   8.0000E-10  5.0000E-10  1.0000E-10  1.0000E-10  1.0000E-10  1.0000E-10  1.0000E-10  1.0000E-10  1.0000E-10  1.0000E-10
   6   8.0000E-10  5.0000E-10  5.0000E-10  2.0000E-10  2.0000E-10  1.0000E-10  1.0000E-10  1.0000E-10  1.0000E-10  5.0000E-10
   7   8.0000E-10  5.0000E-10  5.0000E-10  2.0000E-10  2.0000E-10  1.0000E-10  1.0000E-10  2.0000E-10  2.0000E-10   0.000    
   8    0.000      5.0000E-10  5.0000E-10  2.0000E-10  2.0000E-10  1.0000E-10  1.0000E-10  2.0000E-10  5.0000E-10   0.000    
   9    0.000      5.0000E-10  5.0000E-10  2.0000E-10  2.0000E-10  1.0000E-10  1.0000E-10  2.0000E-10  5.0000E-10   0.000    
  10    0.000      5.0000E-10  5.0000E-10  2.0000E-10  2.0000E-10  1.0000E-10  1.0000E-10  2.0000E-10  5.0000E-10  8.0000E-10
  11    0.000      1.0000E-10  1.0000E-10  1.0000E-10  1.0000E-10  1.0000E-10  1.0000E-10  2.0000E-10  5.0000E-10   0.000    
  12   1.0000E-10  1.0000E-10  1.0000E-10  1.0000E-10  1.0000E-10  1.0000E-10  1.0000E-10  1.0000E-10  2.0000E-10   0.000    
  13   1.0000E-10  1.0000E-10  2.0000E-10  2.0000E-10  2.0000E-10  2.0000E-10  2.0000E-10  1.0000E-10  1.0000E-10   0.000    
  14    0.000      2.0000E-10  5.0000E-10  5.0000E-10  5.0000E-10  5.0000E-10  5.0000E-10  2.0000E-10  1.0000E-10   0.000    
  15    0.000       0.000      8.0000E-10  8.0000E-10  8.0000E-10  8.0000E-10   0.000       0.000       0.000       0.000    

                  ET RATE =  5.000000E-10

 USING ET EXTINCTION DEPTH FROM PREVIOUS STRESS PERIOD. CURRENT PERIOD IS:      40

 USING EXTINCTION WATER CONTENT FROM PREVIOUS STRESS PERIOD. CURRENT PERIOD IS:      40

 USING AIR ENTRY PRESSURE FROM PREVIOUS STRESS PERIOD. CURRENT PERIOD IS:      40

 USING ROOT PRESSURE HEAD FROM PREVIOUS STRESS PERIOD. CURRENT PERIOD IS:      40

 USING ROOT ACTIVITY FROM PREVIOUS STRESS PERIOD. CURRENT PERIOD IS:      40

 PROCESSING AG STRESS PERIOD DATA

 READING AG STRESS PERIOD DATA

 READING IRRIGATION WELL

 NO IRRPOND OR REUSING IRRPOND DATA FROM LAST STRESS PERIOD

 END PROCESSING AG STRESS PERIOD DATA OPTIONS
 
 SOLVING FOR HEAD 
                                                   Max.-Head-Change                         Max.-Flux-Residual
  Residual-Control   Outer-Iter.   Inner-Iter.     Column Row Layer    Maximum-Head-Change  Column Row Layer    Maximum-Flux-Residual          L2-NORM 
          0                 1           2             4    7     1       0.1234728653E-01       4    7    1         0.6461657483E+00      0.1783970599E+01
          0                 2           2             4    7     1      -0.1200405227E-02       4    7    1        -0.6458154230E-01      0.1783412025E+00
          0                 3           1             4    7     1       0.8168149239E-04       4    7    1         0.4517285508E-02      0.1247845779E-01

    ------------------------------------------------
       NWT REQUIRED            3 OUTER ITERATIONS 
       AND A TOTAL OF          5 INNER ITERATIONS.
    ------------------------------------------------

 NO OUTPUT CONTROL FOR STRESS PERIOD   40   TIME STEP    1
 
 SOLVING FOR HEAD 
                                                   Max.-Head-Change                         Max.-Flux-Residual
  Residual-Control   Outer-Iter.   Inner-Iter.     Column Row Layer    Maximum-Head-Change  Column Row Layer    Maximum-Flux-Residual          L2-NORM 
          0                 1           2             4    7     1       0.1225931062E-01       4    7    1         0.6415430555E+00      0.1774257319E+01
          0                 2           2             4    7     1      -0.1191852158E-02       4    7    1        -0.6411952088E-01      0.1773703162E+00
          0                 3           1             4    7     1       0.8109949850E-04       4    7    1         0.4484968400E-02      0.1241054428E-01

    ------------------------------------------------
       NWT REQUIRED            3 OUTER ITERATIONS 
       AND A TOTAL OF          5 INNER ITERATIONS.
    ------------------------------------------------

 NO OUTPUT CONTROL FOR STRESS PERIOD   40   TIME STEP    2
 
 SOLVING FOR HEAD 
                                                   Max.-Head-Change                         Max.-Flux-Residual
  Residual-Control   Outer-Iter.   Inner-Iter.     Column Row Layer    Maximum-Head-Change  Column Row Layer    Maximum-Flux-Residual          L2-NORM 
          0                 1           2             4    7     1       0.1217235297E-01       4    7    1         0.6369743032E+00      0.1764640894E+01
          0                 2           2             4    7     1      -0.1183398088E-02       4    7    1        -0.6366289066E-01      0.1764091092E+00
          0                 3           1             4    7     1       0.8052424175E-04       4    7    1         0.4453028422E-02      0.1234330312E-01

    ------------------------------------------------
       NWT REQUIRED            3 OUTER ITERATIONS 
       AND A TOTAL OF          5 INNER ITERATIONS.
    ------------------------------------------------

 NO OUTPUT CONTROL FOR STRESS PERIOD   40   TIME STEP    3
 
 SOLVING FOR HEAD 
                                                   Max.-Head-Change                         Max.-Flux-Residual
  Residual-Control   Outer-Iter.   Inner-Iter.     Column Row Layer    Maximum-Head-Change  Column Row Layer    Maximum-Flux-Residual          L2-NORM 
          0                 1           2             4    7     1       0.1208626389E-01       4    7    1         0.6324510245E+00      0.1755126927E+01
          0                 2           2             4    7     1      -0.1175028460E-02       4    7    1        -0.6321080540E-01      0.1754581585E+00
          0                 3           1             4    7     1       0.7995473012E-04       4    7    1         0.4421406331E-02      0.1227678698E-01

    ------------------------------------------------
       NWT REQUIRED            3 OUTER ITERATIONS 
       AND A TOTAL OF          5 INNER ITERATIONS.
    ------------------------------------------------

 NO OUTPUT CONTROL FOR STRESS PERIOD   40   TIME STEP    4
 
 SOLVING FOR HEAD 
                                                   Max.-Head-Change                         Max.-Flux-Residual
  Residual-Control   Outer-Iter.   Inner-Iter.     Column Row Layer    Maximum-Head-Change  Column Row Layer    Maximum-Flux-Residual          L2-NORM 
          0                 1           2             4    7     1       0.1200116625E-01       4    7    1         0.6279801013E+00      0.1745711269E+01
          0                 2           2             4    7     1      -0.1166755220E-02       4    7    1        -0.6276395291E-01      0.1745170215E+00
          0                 3           1             4    7     1       0.7939177789E-04       4    7    1         0.4390150273E-02      0.1221091731E-01

    ------------------------------------------------
       NWT REQUIRED            3 OUTER ITERATIONS 
       AND A TOTAL OF          5 INNER ITERATIONS.
    ------------------------------------------------

 NO OUTPUT CONTROL FOR STRESS PERIOD   40   TIME STEP    5
 
 SOLVING FOR HEAD 
                                                   Max.-Head-Change                         Max.-Flux-Residual
  Residual-Control   Outer-Iter.   Inner-Iter.     Column Row Layer    Maximum-Head-Change  Column Row Layer    Maximum-Flux-Residual          L2-NORM 
          0                 1           2             4    7     1       0.1191703853E-01       4    7    1         0.6235605825E+00      0.1736387437E+01
          0                 2           2             4    7     1      -0.1158576277E-02       4    7    1        -0.6232223816E-01      0.1735850514E+00
          0                 3           1             4    7     1       0.7883524140E-04       4    7    1         0.4359253557E-02      0.1214571552E-01

    ------------------------------------------------
       NWT REQUIRED            3 OUTER ITERATIONS 
       AND A TOTAL OF          5 INNER ITERATIONS.
    ------------------------------------------------

 NO OUTPUT CONTROL FOR STRESS PERIOD   40   TIME STEP    6
 
 SOLVING FOR HEAD 
                                                   Max.-Head-Change                         Max.-Flux-Residual
  Residual-Control   Outer-Iter.   Inner-Iter.     Column Row Layer    Maximum-Head-Change  Column Row Layer    Maximum-Flux-Residual          L2-NORM 
          0                 1           2             4    7     1       0.1183386848E-01       4    7    1         0.6191913522E+00      0.1727169671E+01
          0                 2           2             4    7     1      -0.1150490440E-02       4    7    1        -0.6188554959E-01      0.1726636805E+00
          0                 3           1             4    7     1       0.7828504030E-04       4    7    1         0.4328708419E-02      0.1208127527E-01

    ------------------------------------------------
       NWT REQUIRED            3 OUTER ITERATIONS 
       AND A TOTAL OF          5 INNER ITERATIONS.
    ------------------------------------------------

 NO OUTPUT CONTROL FOR STRESS PERIOD   40   TIME STEP    7
 
 SOLVING FOR HEAD 
                                                   Max.-Head-Change                         Max.-Flux-Residual
  Residual-Control   Outer-Iter.   Inner-Iter.     Column Row Layer    Maximum-Head-Change  Column Row Layer    Maximum-Flux-Residual          L2-NORM 
          0                 1           2             4    7     1       0.1175150149E-01       4    7    1         0.6148644531E+00      0.1718036655E+01
          0                 2           2             4    7     1      -0.1142482677E-02       4    7    1        -0.6145309189E-01      0.1717508245E+00
          0                 3           1             4    7     1       0.7774015228E-04       4    7    1         0.4298459236E-02      0.1201742248E-01

    ------------------------------------------------
       NWT REQUIRED            3 OUTER ITERATIONS 
       AND A TOTAL OF          5 INNER ITERATIONS.
    ------------------------------------------------

 NO OUTPUT CONTROL FOR STRESS PERIOD   40   TIME STEP    8
 
 SOLVING FOR HEAD 
                                                   Max.-Head-Change                         Max.-Flux-Residual
  Residual-Control   Outer-Iter.   Inner-Iter.     Column Row Layer    Maximum-Head-Change  Column Row Layer    Maximum-Flux-Residual          L2-NORM 
          0                 1           2             4    7     1       0.1167006557E-01       4    7    1         0.6105865135E+00      0.1709003754E+01
          0                 2           2             4    7     1      -0.1134565435E-02       4    7    1        -0.6102552757E-01      0.1708479282E+00
          0                 3           1             4    7     1       0.7720142356E-04       4    7    1         0.4268552321E-02      0.1195424477E-01

    ------------------------------------------------
       NWT REQUIRED            3 OUTER ITERATIONS 
       AND A TOTAL OF          5 INNER ITERATIONS.
    ------------------------------------------------

 NO OUTPUT CONTROL FOR STRESS PERIOD   40   TIME STEP    9
 
 SOLVING FOR HEAD 
                                                   Max.-Head-Change                         Max.-Flux-Residual
  Residual-Control   Outer-Iter.   Inner-Iter.     Column Row Layer    Maximum-Head-Change  Column Row Layer    Maximum-Flux-Residual          L2-NORM 
          0                 1           2             4    7     1       0.1158954152E-01       4    7    1         0.6063568488E+00      0.1700057222E+01
          0                 2           2             4    7     1      -0.1126736844E-02       4    7    1        -0.6060278817E-01      0.1699537125E+00
          0                 3           1             4    7     1       0.7666872706E-04       4    7    1         0.4238982903E-02      0.1189170635E-01

    ------------------------------------------------
       NWT REQUIRED            3 OUTER ITERATIONS 
       AND A TOTAL OF          5 INNER ITERATIONS.
    ------------------------------------------------

 NO OUTPUT CONTROL FOR STRESS PERIOD   40   TIME STEP   10
 
 SOLVING FOR HEAD 
                                                   Max.-Head-Change                         Max.-Flux-Residual
  Residual-Control   Outer-Iter.   Inner-Iter.     Column Row Layer    Maximum-Head-Change  Column Row Layer    Maximum-Flux-Residual          L2-NORM 
          0                 1           2             4    7     1       0.1150991449E-01       4    7    1         0.6021744625E+00      0.1691207242E+01
          0                 2           2             4    7     1      -0.1118995463E-02       4    7    1        -0.6018477411E-01      0.1690690880E+00
          0                 3           1             4    7     1       0.7614196442E-04       4    7    1         0.4209743980E-02      0.1182981407E-01

    ------------------------------------------------
       NWT REQUIRED            3 OUTER ITERATIONS 
       AND A TOTAL OF          5 INNER ITERATIONS.
    ------------------------------------------------

 NO OUTPUT CONTROL FOR STRESS PERIOD   40   TIME STEP   11
 
 SOLVING FOR HEAD 
                                                   Max.-Head-Change                         Max.-Flux-Residual
  Residual-Control   Outer-Iter.   Inner-Iter.     Column Row Layer    Maximum-Head-Change  Column Row Layer    Maximum-Flux-Residual          L2-NORM 
          0                 1           2             4    7     1       0.1143103567E-01       4    7    1         0.5980312615E+00      0.1682441489E+01
          0                 2           2             4    7     1      -0.1111326823E-02       4    7    1        -0.5977067649E-01      0.1681929351E+00
          0                 3           1             4    7     1       0.7562015192E-04       4    7    1         0.4180779036E-02      0.1176853440E-01

    ------------------------------------------------
       NWT REQUIRED            3 OUTER ITERATIONS 
       AND A TOTAL OF          5 INNER ITERATIONS.
    ------------------------------------------------

 NO OUTPUT CONTROL FOR STRESS PERIOD   40   TIME STEP   12
 
 SOLVING FOR HEAD 
                                                   Max.-Head-Change                         Max.-Flux-Residual
  Residual-Control   Outer-Iter.   Inner-Iter.     Column Row Layer    Maximum-Head-Change  Column Row Layer    Maximum-Flux-Residual          L2-NORM 
          0                 1           2             4    7     1       0.1135302718E-01       4    7    1         0.5939341776E+00      0.1673767729E+01
          0                 2           2             4    7     1      -0.1103742799E-02       4    7    1        -0.5936118816E-01      0.1673259447E+00
          0                 3           1             4    7     1       0.7510409721E-04       4    7    1         0.4152136499E-02      0.1170787543E-01

    ------------------------------------------------
       NWT REQUIRED            3 OUTER ITERATIONS 
       AND A TOTAL OF          5 INNER ITERATIONS.
    ------------------------------------------------

 NO OUTPUT CONTROL FOR STRESS PERIOD   40   TIME STEP   13
 
 SOLVING FOR HEAD 
                                                   Max.-Head-Change                         Max.-Flux-Residual
  Residual-Control   Outer-Iter.   Inner-Iter.     Column Row Layer    Maximum-Head-Change  Column Row Layer    Maximum-Flux-Residual          L2-NORM 
          0                 1           2             4    7     1       0.1127601184E-01       4    7    1         0.5898895428E+00      0.1665181649E+01
          0                 2           2             4    7     1      -0.1096255329E-02       4    7    1        -0.5895694195E-01      0.1664677308E+00
          0                 3           1             4    7     1       0.7459461232E-04       4    7    1         0.4123860620E-02      0.1164783833E-01

    ------------------------------------------------
       NWT REQUIRED            3 OUTER ITERATIONS 
       AND A TOTAL OF          5 INNER ITERATIONS.
    ------------------------------------------------

 NO OUTPUT CONTROL FOR STRESS PERIOD   40   TIME STEP   14
 
 SOLVING FOR HEAD 
                                                   Max.-Head-Change                         Max.-Flux-Residual
  Residual-Control   Outer-Iter.   Inner-Iter.     Column Row Layer    Maximum-Head-Change  Column Row Layer    Maximum-Flux-Residual          L2-NORM 
          0                 1           2             4    7     1       0.1119969943E-01       4    7    1         0.5858817535E+00      0.1656678901E+01
          0                 2           2             4    7     1      -0.1088836199E-02       4    7    1        -0.5855637832E-01      0.1656178534E+00
          0                 3           1             4    7     1       0.7408977758E-04       4    7    1         0.4095842333E-02      0.1158839938E-01

    ------------------------------------------------
       NWT REQUIRED            3 OUTER ITERATIONS 
       AND A TOTAL OF          5 INNER ITERATIONS.
    ------------------------------------------------

 NO OUTPUT CONTROL FOR STRESS PERIOD   40   TIME STEP   15
 
 SOLVING FOR HEAD 
                                                   Max.-Head-Change                         Max.-Flux-Residual
  Residual-Control   Outer-Iter.   Inner-Iter.     Column Row Layer    Maximum-Head-Change  Column Row Layer    Maximum-Flux-Residual          L2-NORM 
          0                 1           2             4    7     1       0.1112408050E-01       4    7    1         0.5819104092E+00      0.1648258556E+01
          0                 2           2             4    7     1      -0.1081484488E-02       4    7    1        -0.5815945728E-01      0.1647761756E+00
          0                 3           1             4    7     1       0.7358953028E-04       4    7    1         0.4068078823E-02      0.1152949063E-01

    ------------------------------------------------
       NWT REQUIRED            3 OUTER ITERATIONS 
       AND A TOTAL OF          5 INNER ITERATIONS.
    ------------------------------------------------

 NO OUTPUT CONTROL FOR STRESS PERIOD   40   TIME STEP   16
 
 SOLVING FOR HEAD 
                                                   Max.-Head-Change                         Max.-Flux-Residual
  Residual-Control   Outer-Iter.   Inner-Iter.     Column Row Layer    Maximum-Head-Change  Column Row Layer    Maximum-Flux-Residual          L2-NORM 
          0                 1           2             4    7     1       0.1104941892E-01       4    7    1         0.5779896689E+00      0.1639926766E+01
          0                 2           2             4    7     1      -0.1074225853E-02       4    7    1        -0.5776759395E-01      0.1639433810E+00
          0                 3           1             4    7     1       0.7309561612E-04       4    7    1         0.4040669090E-02      0.1147123476E-01

    ------------------------------------------------
       NWT REQUIRED            3 OUTER ITERATIONS 
       AND A TOTAL OF          5 INNER ITERATIONS.
    ------------------------------------------------

 NO OUTPUT CONTROL FOR STRESS PERIOD   40   TIME STEP   17
 
 SOLVING FOR HEAD 
                                                   Max.-Head-Change                         Max.-Flux-Residual
  Residual-Control   Outer-Iter.   Inner-Iter.     Column Row Layer    Maximum-Head-Change  Column Row Layer    Maximum-Flux-Residual          L2-NORM 
          0                 1           2             4    7     1       0.1097555820E-01       4    7    1         0.5741112418E+00      0.1631674810E+01
          0                 2           2             4    7     1      -0.1067045078E-02       4    7    1        -0.5737995969E-01      0.1631185591E+00
          0                 3           1             4    7     1       0.7260700048E-04       4    7    1         0.4013555170E-02      0.1141354168E-01

    ------------------------------------------------
       NWT REQUIRED            3 OUTER ITERATIONS 
       AND A TOTAL OF          5 INNER ITERATIONS.
    ------------------------------------------------

 NO OUTPUT CONTROL FOR STRESS PERIOD   40   TIME STEP   18
 
 SOLVING FOR HEAD 
                                                   Max.-Head-Change                         Max.-Flux-Residual
  Residual-Control   Outer-Iter.   Inner-Iter.     Column Row Layer    Maximum-Head-Change  Column Row Layer    Maximum-Flux-Residual          L2-NORM 
          0                 1           2             4    7     1       0.1090235166E-01       4    7    1         0.5702670132E+00      0.1623507390E+01
          0                 2           2             4    7     1      -0.1059927903E-02       4    7    1        -0.5699574346E-01      0.1623021774E+00
          0                 3           1             4    7     1       0.7212271182E-04       4    7    1         0.3986680336E-02      0.1135641596E-01

    ------------------------------------------------
       NWT REQUIRED            3 OUTER ITERATIONS 
       AND A TOTAL OF          5 INNER ITERATIONS.
    ------------------------------------------------

 NO OUTPUT CONTROL FOR STRESS PERIOD   40   TIME STEP   19
 
 SOLVING FOR HEAD 
                                                   Max.-Head-Change                         Max.-Flux-Residual
  Residual-Control   Outer-Iter.   Inner-Iter.     Column Row Layer    Maximum-Head-Change  Column Row Layer    Maximum-Flux-Residual          L2-NORM 
          0                 1           2             4    7     1       0.1083005978E-01       4    7    1         0.5664713516E+00      0.1615418925E+01
          0                 2           2             4    7     1      -0.1052899652E-02       4    7    1        -0.5661638137E-01      0.1614937030E+00
          0                 3           1             4    7     1       0.7164447466E-04       4    7    1         0.3960145033E-02      0.1129986442E-01

    ------------------------------------------------
       NWT REQUIRED            3 OUTER ITERATIONS 
       AND A TOTAL OF          5 INNER ITERATIONS.
    ------------------------------------------------

 NO OUTPUT CONTROL FOR STRESS PERIOD   40   TIME STEP   20
 
 SOLVING FOR HEAD 
                                                   Max.-Head-Change                         Max.-Flux-Residual
  Residual-Control   Outer-Iter.   Inner-Iter.     Column Row Layer    Maximum-Head-Change  Column Row Layer    Maximum-Flux-Residual          L2-NORM 
          0                 1           2             4    7     1       0.1075839706E-01       4    7    1         0.5627084642E+00      0.1607407641E+01
          0                 2           2             4    7     1      -0.1045932569E-02       4    7    1        -0.5624029495E-01      0.1606929641E+00
          0                 3           1             4    7     1       0.7117039964E-04       4    7    1         0.3933838872E-02      0.1124388321E-01

    ------------------------------------------------
       NWT REQUIRED            3 OUTER ITERATIONS 
       AND A TOTAL OF          5 INNER ITERATIONS.
    ------------------------------------------------

 NO OUTPUT CONTROL FOR STRESS PERIOD   40   TIME STEP   21
 
 SOLVING FOR HEAD 
                                                   Max.-Head-Change                         Max.-Flux-Residual
  Residual-Control   Outer-Iter.   Inner-Iter.     Column Row Layer    Maximum-Head-Change  Column Row Layer    Maximum-Flux-Residual          L2-NORM 
          0                 1           2             4    7     1       0.1068748885E-01       4    7    1         0.5589855225E+00      0.1599470212E+01
          0                 2           2             4    7     1      -0.1039038840E-02       4    7    1        -0.5586820099E-01      0.1598995700E+00
          0                 3           1             4    7     1       0.7070131594E-04       4    7    1         0.3907811962E-02      0.1118834731E-01

    ------------------------------------------------
       NWT REQUIRED            3 OUTER ITERATIONS 
       AND A TOTAL OF          5 INNER ITERATIONS.
    ------------------------------------------------

 NO OUTPUT CONTROL FOR STRESS PERIOD   40   TIME STEP   22
 
 SOLVING FOR HEAD 
                                                   Max.-Head-Change                         Max.-Flux-Residual
  Residual-Control   Outer-Iter.   Inner-Iter.     Column Row Layer    Maximum-Head-Change  Column Row Layer    Maximum-Flux-Residual          L2-NORM 
          0                 1           2             4    7     1       0.1061746135E-01       4    7    1         0.5553090264E+00      0.1591620068E+01
          0                 2           2             4    7     1      -0.1032230734E-02       4    7    1        -0.5550074912E-01      0.1591149036E+00
          0                 3           1             4    7     1       0.7023805806E-04       4    7    1         0.3882109741E-02      0.1113345250E-01

    ------------------------------------------------
       NWT REQUIRED            3 OUTER ITERATIONS 
       AND A TOTAL OF          5 INNER ITERATIONS.
    ------------------------------------------------

 NO OUTPUT CONTROL FOR STRESS PERIOD   40   TIME STEP   23
 
 SOLVING FOR HEAD 
                                                   Max.-Head-Change                         Max.-Flux-Residual
  Residual-Control   Outer-Iter.   Inner-Iter.     Column Row Layer    Maximum-Head-Change  Column Row Layer    Maximum-Flux-Residual          L2-NORM 
          0                 1           2             4    7     1       0.1054802469E-01       4    7    1         0.5516635425E+00      0.1583841132E+01
          0                 2           2             4    7     1      -0.1025480071E-02       4    7    1        -0.5513639680E-01      0.1583373619E+00
          0                 3           1             4    7     1       0.6977870956E-04       4    7    1         0.3856624354E-02      0.1107906328E-01

    ------------------------------------------------
       NWT REQUIRED            3 OUTER ITERATIONS 
       AND A TOTAL OF          5 INNER ITERATIONS.
    ------------------------------------------------

 NO OUTPUT CONTROL FOR STRESS PERIOD   40   TIME STEP   24
 
 SOLVING FOR HEAD 
                                                   Max.-Head-Change                         Max.-Flux-Residual
  Residual-Control   Outer-Iter.   Inner-Iter.     Column Row Layer    Maximum-Head-Change  Column Row Layer    Maximum-Flux-Residual          L2-NORM 
          0                 1           2             4    7     1       0.1047930946E-01       4    7    1         0.5480560181E+00      0.1576138343E+01
          0                 2           2             4    7     1      -0.1018799545E-02       4    7    1        -0.5477583842E-01      0.1575702744E+00
          0                 3           1             4    7     1       0.6932413310E-04       4    7    1         0.3831404310E-02      0.1102541116E-01

    ------------------------------------------------
       NWT REQUIRED            3 OUTER ITERATIONS 
       AND A TOTAL OF          5 INNER ITERATIONS.
    ------------------------------------------------

 NO OUTPUT CONTROL FOR STRESS PERIOD   40   TIME STEP   25
 
 SOLVING FOR HEAD 
                                                   Max.-Head-Change                         Max.-Flux-Residual
  Residual-Control   Outer-Iter.   Inner-Iter.     Column Row Layer    Maximum-Head-Change  Column Row Layer    Maximum-Flux-Residual          L2-NORM 
          0                 1           2             4    7     1       0.1041130468E-01       4    7    1         0.5444858988E+00      0.1568510370E+01
          0                 2           2             4    7     1      -0.1012188090E-02       4    7    1        -0.5441901857E-01      0.1568051026E+00
          0                 3           1             4    7     1       0.6887425638E-04       4    7    1         0.3806445777E-02      0.1097188289E-01

    ------------------------------------------------
       NWT REQUIRED            3 OUTER ITERATIONS 
       AND A TOTAL OF          5 INNER ITERATIONS.
    ------------------------------------------------

 NO OUTPUT CONTROL FOR STRESS PERIOD   40   TIME STEP   26
 
 SOLVING FOR HEAD 
                                                   Max.-Head-Change                         Max.-Flux-Residual
  Residual-Control   Outer-Iter.   Inner-Iter.     Column Row Layer    Maximum-Head-Change  Column Row Layer    Maximum-Flux-Residual          L2-NORM 
          0                 1           2             4    7     1       0.1034399845E-01       4    7    1         0.5409526150E+00      0.1560947938E+01
          0                 2           2             4    7     1      -0.1005644547E-02       4    7    1        -0.5406588030E-01      0.1560490881E+00
          0                 3           1             4    7     1       0.6842900083E-04       4    7    1         0.3781744746E-02      0.1091900017E-01

    ------------------------------------------------
       NWT REQUIRED            3 OUTER ITERATIONS 
       AND A TOTAL OF          5 INNER ITERATIONS.
    ------------------------------------------------

 NO OUTPUT CONTROL FOR STRESS PERIOD   40   TIME STEP   27
 
 SOLVING FOR HEAD 
                                                   Max.-Head-Change                         Max.-Flux-Residual
  Residual-Control   Outer-Iter.   Inner-Iter.     Column Row Layer    Maximum-Head-Change  Column Row Layer    Maximum-Flux-Residual          L2-NORM 
          0                 1           2             4    7     1       0.1027737857E-01       4    7    1         0.5374555496E+00      0.1553458736E+01
          0                 2           2             4    7     1      -0.9991677342E-03       4    7    1        -0.5371636197E-01      0.1553004966E+00
          0                 3           1             4    7     1       0.6798828620E-04       4    7    1         0.3757296936E-02      0.1086663593E-01

    ------------------------------------------------
       NWT REQUIRED            3 OUTER ITERATIONS 
       AND A TOTAL OF          5 INNER ITERATIONS.
    ------------------------------------------------

 NO OUTPUT CONTROL FOR STRESS PERIOD   40   TIME STEP   28
 
 SOLVING FOR HEAD 
                                                   Max.-Head-Change                         Max.-Flux-Residual
  Residual-Control   Outer-Iter.   Inner-Iter.     Column Row Layer    Maximum-Head-Change  Column Row Layer    Maximum-Flux-Residual          L2-NORM 
          0                 1           2             4    7     1       0.1021143455E-01       4    7    1         0.5339940707E+00      0.1546039737E+01
          0                 2           2             4    7     1      -0.9927566278E-03       4    7    1        -0.5337040037E-01      0.1545589289E+00
          0                 3           1             4    7     1       0.6755204269E-04       4    7    1         0.3733097925E-02      0.1081474534E-01

    ------------------------------------------------
       NWT REQUIRED            3 OUTER ITERATIONS 
       AND A TOTAL OF          5 INNER ITERATIONS.
    ------------------------------------------------

 NO OUTPUT CONTROL FOR STRESS PERIOD   40   TIME STEP   29
 
 SOLVING FOR HEAD 
                                                   Max.-Head-Change                         Max.-Flux-Residual
  Residual-Control   Outer-Iter.   Inner-Iter.     Column Row Layer    Maximum-Head-Change  Column Row Layer    Maximum-Flux-Residual          L2-NORM 
          0                 1           2             4    7     1       0.1014629328E-01       4    7    1         0.5305749604E+00      0.1538696988E+01
          0                 2           2             4    7     1      -0.9864235662E-03       4    7    1        -0.5302867340E-01      0.1538249858E+00
          0                 3           1             4    7     1       0.6712110930E-04       4    7    1         0.3709195100E-02      0.1076339658E-01

    ------------------------------------------------
       NWT REQUIRED            3 OUTER ITERATIONS 
       AND A TOTAL OF          5 INNER ITERATIONS.
    ------------------------------------------------

 NO OUTPUT CONTROL FOR STRESS PERIOD   40   TIME STEP   30



 STREAM LISTING     PERIOD     40   STEP       30

 LAYER ROW COL. STREAM  RCH.  FLOW INTO     FLOW TO   FLOW OUT OF   OVRLND.     DIRECT     STREAM       STREAM     STREAM     STREAM   STREAMBED  STREAMBED
                SEG.NO.  NO.  STRM. RCH.    AQUIFER    STRM. RCH.    RUNOFF     PRECIP       ET          HEAD       DEPTH      WIDTH   CONDCTNC.   GRADIENT

   1    1    1     1     1    1.9000E+01  2.1427E-01   1.8786E+01  0.000E+00  0.000E+00  0.000E+00  1.09413E+03  1.082E+00  1.166E+01  5.249E-02  1.361E+00
   1    2    2     1     2    1.8786E+01  3.3054E-01   1.8455E+01  0.000E+00  0.000E+00  0.000E+00  1.08914E+03  1.077E+00  1.158E+01  8.107E-02  1.359E+00
   1    3    3     1     3    1.8455E+01  2.8064E-01   1.8175E+01  0.000E+00  0.000E+00  0.000E+00  1.08349E+03  1.072E+00  1.149E+01  6.892E-02  1.357E+00
   1    3    4     1     4    1.8175E+01  2.5740E-01   1.7917E+01  0.000E+00  0.000E+00  0.000E+00  1.07848E+03  1.068E+00  1.140E+01  6.328E-02  1.356E+00
   1    4    5     2     1    1.5917E+01  3.0542E-01   1.5612E+01  0.000E+00  0.000E+00  0.000E+00  1.07285E+03  9.157E-01  1.200E+01  7.800E-02  1.305E+00
   1    5    6     2     2    1.5612E+01  2.3438E-01   1.5377E+01  0.000E+00  0.000E+00  0.000E+00  1.06742E+03  9.063E-01  1.200E+01  6.000E-02  1.302E+00
   1    6    6     2     3    1.5377E+01  2.3388E-01   1.5143E+01  0.000E+00  0.000E+00  0.000E+00  1.06269E+03  8.980E-01  1.200E+01  6.000E-02  1.299E+00
   1    7    6     2     4    1.5143E+01  2.3338E-01   1.4910E+01  0.000E+00  0.000E+00  0.000E+00  1.05797E+03  8.897E-01  1.200E+01  6.000E-02  1.297E+00
   1    8    6     2     5    1.4910E+01  2.3289E-01   1.4677E+01  0.000E+00  0.000E+00  0.000E+00  1.05324E+03  8.814E-01  1.200E+01  6.000E-02  1.294E+00
   1    3    5     3     1    2.0000E+00  2.8252E-01   1.7175E+00  0.000E+00  0.000E+00  0.000E+00  1.07555E+03  1.909E+00  9.636E+00  7.227E-02  1.955E+00
   1    3    6     3     2    1.7175E+00  2.4905E-01   1.4684E+00  0.000E+00  0.000E+00  0.000E+00  1.07264E+03  1.727E+00  8.909E+00  6.682E-02  1.864E+00
   1    3    7     3     3    1.4684E+00  1.9718E-01   1.2712E+00  0.000E+00  0.000E+00  0.000E+00  1.06987E+03  1.555E+00  8.218E+00  5.547E-02  1.777E+00
   1    4    8     3     4    1.2712E+00  2.2567E-01   1.0456E+00  0.000E+00  0.000E+00  0.000E+00  1.06682E+03  1.364E+00  7.455E+00  6.709E-02  1.682E+00
   1    5    8     3     5    1.0456E+00  1.5790E-01   8.8768E-01  0.000E+00  0.000E+00  0.000E+00  1.06362E+03  1.164E+00  6.655E+00  4.991E-02  1.582E+00
   1    6    8     3     6    8.8768E-01  5.5980E-02   8.3170E-01  0.000E+00  0.000E+00  0.000E+00  1.06158E+03  1.036E+00  6.145E+00  1.844E-02  1.518E+00
   1    5   10     4     1    1.0000E+01  9.0919E-02   9.9091E+00  0.000E+00  0.000E+00  0.000E+00  1.07836E+03  6.368E-01  1.000E+01  2.500E-02  1.212E+00
   1    5    9     4     2    9.9091E+00  1.8158E-01   9.7275E+00  0.000E+00  0.000E+00  0.000E+00  1.07154E+03  6.315E-01  1.000E+01  5.000E-02  1.211E+00
   1    6    8     4     3    9.7275E+00  1.2689E-01   9.6006E+00  0.000E+00  0.000E+00  0.000E+00  1.06381E+03  6.256E-01  1.000E+01  3.500E-02  1.209E+00
   1    6    8     5     1    1.0432E+01  2.2686E-01   1.0205E+01  0.000E+00  0.000E+00  0.000E+00  1.05868E+03  6.790E-01  1.542E+01  6.166E-02  1.226E+00
   1    7    7     5     2    1.0205E+01  2.7894E-01   9.9265E+00  0.000E+00  0.000E+00  0.000E+00  1.05417E+03  6.732E-01  1.519E+01  7.594E-02  1.224E+00
   1    8    7     5     3    9.9265E+00  1.9221E-01   9.7343E+00  0.000E+00  0.000E+00  0.000E+00  1.04992E+03  6.676E-01  1.497E+01  5.241E-02  1.223E+00
   1    8    6     5     4    9.7343E+00  1.3577E-01   9.5985E+00  0.000E+00  0.000E+00  0.000E+00  1.04691E+03  6.637E-01  1.482E+01  3.706E-02  1.221E+00
   1    9    6     6     1    2.4276E+01  2.5176E-01   2.4024E+01  0.000E+00  0.000E+00  0.000E+00  1.04392E+03  1.196E+00  1.200E+01  6.000E-02  1.399E+00
   1   10    7     6     2    2.4024E+01  2.5131E-01   2.3773E+01  0.000E+00  0.000E+00  0.000E+00  1.03937E+03  1.188E+00  1.200E+01  6.000E-02  1.396E+00
   1   11    7     6     3    2.3773E+01  2.5086E-01   2.3522E+01  0.000E+00  0.000E+00  0.000E+00  1.03482E+03  1.181E+00  1.200E+01  6.000E-02  1.394E+00
   1   12    7     6     4    2.3522E+01  2.5041E-01   2.3271E+01  0.000E+00  0.000E+00  0.000E+00  1.03026E+03  1.173E+00  1.200E+01  6.000E-02  1.391E+00
   1   13    7     6     5    2.3271E+01  1.0031E-02   2.3261E+01  0.000E+00  0.000E+00  0.000E+00  1.02708E+03  1.170E+00  1.200E+01  2.400E-02  1.393E-01
   1   14    9     7     1    1.5000E+02  1.3653E+00   1.4863E+02  0.000E+00  0.000E+00  0.000E+00  1.03987E+03  2.288E+00  5.529E+01  5.593E-01  8.137E-01
   1   13    8     7     2    1.4863E+02  1.9544E+00   1.4668E+02  0.000E+00  0.000E+00  0.000E+00  1.03478E+03  2.279E+00  5.525E+01  6.147E-01  1.060E+00
   1   13    7     7     3    1.4668E+02  1.6907E+00   1.4499E+02  0.000E+00  0.000E+00  0.000E+00  1.02969E+03  2.269E+00  5.521E+01  5.584E-01  1.009E+00
   1   13    6     8     1    1.6825E+02  1.1297E+00   1.6712E+02  0.000E+00  0.000E+00  0.000E+00  1.02481E+03  2.937E+00  4.259E+01  4.340E-01  8.677E-01
   1   13    5     8     2    1.6712E+02  3.7088E-01   1.6675E+02  0.000E+00  0.000E+00  0.000E+00  1.01856E+03  2.932E+00  4.252E+01  4.333E-01  2.853E-01
   1   13    4     8     3    1.6675E+02 -1.7770E+00   1.6853E+02  0.000E+00  0.000E+00  0.000E+00  1.01231E+03  2.937E+00  4.258E+01  4.339E+00 -1.365E-01
   1   13    3     8     4    1.6853E+02 -3.3291E+00   1.7186E+02  0.000E+00  0.000E+00  0.000E+00  1.00608E+03  2.953E+00  4.283E+01  4.364E+00 -2.543E-01
   1   13    2     8     5    1.7186E+02 -2.5003E+00   1.7436E+02  0.000E+00  0.000E+00  0.000E+00  9.99847E+02  2.972E+00  4.310E+01  4.392E+00 -1.898E-01
   1   13    1     8     6    1.7436E+02 -1.9630E+00   1.7632E+02  0.000E+00  0.000E+00  0.000E+00  9.94862E+02  2.987E+00  4.331E+01  2.648E+00 -2.471E-01





UNSATURATED ZONE PACKAGE VOLUMETRIC BUDGET FOR  TIME STEP    30 STRESS PERIOD   40
  ------------------------------------------------------------------------------



     CUMULATIVE VOLUMES      L**3       RATES FOR THIS TIME STEP      L**3/T
     ------------------                 ------------------------

           IN:                                      IN:
           ---                                      ---
        INFILTRATION =  1392145149.3763          INFILTRATION =           0.8475

          OUT:                                     OUT:
          ----                                     ----
              UZF ET =  1276992519.7969                UZF ET =           0.7500
        UZF RECHARGE =   113794615.5447          UZF RECHARGE =           0.0001

            IN - OUT =     1358014.0348              IN - OUT =       9.7365E-02

          STORAGE:                                 STORAGE:
          --------                                 --------
      STORAGE CHANGE =     1358015.8634        STORAGE CHANGE =       9.7365E-02

 PERCENT DISCREPANCY IS DIFFERENCE BETWEEN IN-OUT MINUS CHANGE IN STORAGE
 DIVIDED BY THE AVERAGE OF IN AND OUT TIMES 100

 PERCENT DISCREPANCY =           0.00     PERCENT DISCREPANCY =           0.00






1
  VOLUMETRIC BUDGET FOR AGRICULTURAL FIELDS AT  END OF TIME STEP   30, STRESS PERIOD  40
  ------------------------------------------------------------------------------

     CUMULATIVE VOLUMES      L**3       RATES FOR THIS TIME STEP      L**3/T
     ------------------                 ------------------------

           IN:                                      IN:
           ---                                      ---
               AG WELLS  =  1305143552.0000                 AG WELLS  =           0.0000
      DIVERSION SEGMENTS =           0.0000        DIVERSION SEGMENTS =           0.0000
       IRRIGATION PONDS  =           0.0000         IRRIGATION PONDS  =           0.0000
           GW IRRIGATION =           0.0000             GW IRRIGATION =           0.0000
           SW IRRIGATION =           0.0000             SW IRRIGATION =           0.0000
        SYSTEM LOSSES GW =           0.0000          SYSTEM LOSSES GW =           0.0000
        SYSTEM LOSSES SW =           0.0000          SYSTEM LOSSES SW =           0.0000

                TOTAL IN =  1305143552.0000                  TOTAL IN =           0.0000

          OUT:                                     OUT:
          ----                                     ----
               AG WELLS  =           0.0000                 AG WELLS  =           0.0000
      DIVERSION SEGMENTS =           0.0000        DIVERSION SEGMENTS =           0.0000
       IRRIGATION PONDS  =           0.0000         IRRIGATION PONDS  =           0.0000
           GW IRRIGATION =  1305143552.0000             GW IRRIGATION =           0.0000
           SW IRRIGATION =           0.0000             SW IRRIGATION =           0.0000
        SYSTEM LOSSES GW =           0.0000          SYSTEM LOSSES GW =           0.0000
        SYSTEM LOSSES SW =           0.0000          SYSTEM LOSSES SW =           0.0000

               TOTAL OUT =  1305143552.0000                 TOTAL OUT =           0.0000

                IN - OUT =           0.0000                  IN - OUT =           0.0000

     PERCENT DISCREPANCY =           0.00         PERCENT DISCREPANCY =           0.00



1
  VOLUMETRIC BUDGET FOR ENTIRE MODEL AT END OF TIME STEP   30, STRESS PERIOD  40
  ------------------------------------------------------------------------------

     CUMULATIVE VOLUMES      L**3       RATES FOR THIS TIME STEP      L**3/T
     ------------------                 ------------------------

           IN:                                      IN:
           ---                                      ---
             STORAGE     =  1770720512.0000               STORAGE     =           3.9845
       CONSTANT HEAD     =           0.0000         CONSTANT HEAD     =           0.0000
     HEAD DEP BOUNDS     =    29357616.0000       HEAD DEP BOUNDS     =           0.2878
      STREAM LEAKAGE     =  1257021696.0000        STREAM LEAKAGE     =          12.2496
        UZF RECHARGE     =   113794720.0000          UZF RECHARGE     =       1.3485E-04
               GW ET     =           0.0000                 GW ET     =           0.0000
     SURFACE LEAKAGE     =           0.0000       SURFACE LEAKAGE     =           0.0000
           AG WELLS      =           0.0000             AG WELLS      =           0.0000

                TOTAL IN =  3170894592.0000                  TOTAL IN =          16.5220

          OUT:                                     OUT:
          ----                                     ----
             STORAGE     =   770793728.0000               STORAGE     =           6.6645
       CONSTANT HEAD     =           0.0000         CONSTANT HEAD     =           0.0000
     HEAD DEP BOUNDS     =    29993016.0000       HEAD DEP BOUNDS     =           0.2889
      STREAM LEAKAGE     =  1047364096.0000        STREAM LEAKAGE     =           9.5694
        UZF RECHARGE     =           0.0000          UZF RECHARGE     =           0.0000
               GW ET     =    17607784.0000                 GW ET     =           0.0000
     SURFACE LEAKAGE     =           0.0000       SURFACE LEAKAGE     =           0.0000
           AG WELLS      =  1305143552.0000             AG WELLS      =           0.0000

               TOTAL OUT =  3170902016.0000                 TOTAL OUT =          16.5227

                IN - OUT =       -7424.0000                  IN - OUT =      -7.6103E-04

     PERCENT DISCREPANCY =          -0.00         PERCENT DISCREPANCY =          -0.00






         TIME SUMMARY AT END OF TIME STEP   30 IN STRESS PERIOD   40
                    SECONDS     MINUTES      HOURS       DAYS        YEARS
                    -----------------------------------------------------------
   TIME STEP LENGTH  87667.      1461.1      24.352      1.0147     2.77799E-03
 STRESS PERIOD TIME 2.63000E+06  43833.      730.56      30.440     8.33397E-02
         TOTAL TIME 1.02656E+08 1.71093E+06  28515.      1188.1      3.2530    
1
1
                            STRESS PERIOD NO.   41, LENGTH =   2630000.    
                            -----------------------------------------------

                              NUMBER OF TIME STEPS =    30

                               MULTIPLIER FOR DELT =     1.000

                            INITIAL TIME STEP SIZE =   87666.66    

 REUSING NON-PARAMETER GHB CELLS FROM LAST STRESS PERIOD

      2 GHB CELLS

 REUSING STREAM SEGMENT DATA FROM LAST STRESS PERIOD



            AREAL INFILTRATION RATE
 READING ON UNIT   19 WITH FORMAT: (FREE)              

            1           2           3           4           5           6           7           8           9          10
 ........................................................................................................................
   1   1.0000E-10  2.0000E-10   0.000       0.000       0.000       0.000       0.000       0.000       0.000       0.000    
   2   2.0000E-10  1.0000E-10  2.0000E-10   0.000       0.000      8.0000E-10  8.0000E-10  5.0000E-10   0.000       0.000    
   3    0.000      5.0000E-10  1.0000E-10  1.0000E-10  8.0000E-10  8.0000E-10  5.0000E-10  5.0000E-10   0.000       0.000    
   4   8.0000E-10  5.0000E-10  1.0000E-10  1.0000E-10  1.0000E-10  1.0000E-10  1.0000E-10  1.0000E-10  2.0000E-10   0.000    
   5   8.0000E-10  5.0000E-10  1.0000E-10  1.0000E-10  1.0000E-10  1.0000E-10  1.0000E-10  1.0000E-10  1.0000E-10  1.0000E-10
   6   8.0000E-10  5.0000E-10  5.0000E-10  2.0000E-10  2.0000E-10  1.0000E-10  1.0000E-10  1.0000E-10  1.0000E-10  5.0000E-10
   7   8.0000E-10  5.0000E-10  5.0000E-10  2.0000E-10  2.0000E-10  1.0000E-10  1.0000E-10  2.0000E-10  2.0000E-10   0.000    
   8    0.000      5.0000E-10  5.0000E-10  2.0000E-10  2.0000E-10  1.0000E-10  1.0000E-10  2.0000E-10  5.0000E-10   0.000    
   9    0.000      5.0000E-10  5.0000E-10  2.0000E-10  2.0000E-10  1.0000E-10  1.0000E-10  2.0000E-10  5.0000E-10   0.000    
  10    0.000      5.0000E-10  5.0000E-10  2.0000E-10  2.0000E-10  1.0000E-10  1.0000E-10  2.0000E-10  5.0000E-10  8.0000E-10
  11    0.000      1.0000E-10  1.0000E-10  1.0000E-10  1.0000E-10  1.0000E-10  1.0000E-10  2.0000E-10  5.0000E-10   0.000    
  12   1.0000E-10  1.0000E-10  1.0000E-10  1.0000E-10  1.0000E-10  1.0000E-10  1.0000E-10  1.0000E-10  2.0000E-10   0.000    
  13   1.0000E-10  1.0000E-10  2.0000E-10  2.0000E-10  2.0000E-10  2.0000E-10  2.0000E-10  1.0000E-10  1.0000E-10   0.000    
  14    0.000      2.0000E-10  5.0000E-10  5.0000E-10  5.0000E-10  5.0000E-10  5.0000E-10  2.0000E-10  1.0000E-10   0.000    
  15    0.000       0.000      8.0000E-10  8.0000E-10  8.0000E-10  8.0000E-10   0.000       0.000       0.000       0.000    

                  ET RATE =  2.500000E-08

 USING ET EXTINCTION DEPTH FROM PREVIOUS STRESS PERIOD. CURRENT PERIOD IS:      41

 USING EXTINCTION WATER CONTENT FROM PREVIOUS STRESS PERIOD. CURRENT PERIOD IS:      41

 USING AIR ENTRY PRESSURE FROM PREVIOUS STRESS PERIOD. CURRENT PERIOD IS:      41

 USING ROOT PRESSURE HEAD FROM PREVIOUS STRESS PERIOD. CURRENT PERIOD IS:      41

 USING ROOT ACTIVITY FROM PREVIOUS STRESS PERIOD. CURRENT PERIOD IS:      41

 PROCESSING AG STRESS PERIOD DATA

 READING AG STRESS PERIOD DATA

 READING IRRIGATION WELL

 NO IRRPOND OR REUSING IRRPOND DATA FROM LAST STRESS PERIOD

 END PROCESSING AG STRESS PERIOD DATA OPTIONS
 
 SOLVING FOR HEAD 
                                                   Max.-Head-Change                         Max.-Flux-Residual
  Residual-Control   Outer-Iter.   Inner-Iter.     Column Row Layer    Maximum-Head-Change  Column Row Layer    Maximum-Flux-Residual          L2-NORM 
          0                 1           2             3    7     1       0.8939401630E-02       4    9    1         0.3075464002E+00      0.1145108787E+01
          0                 2           2             3    7     1      -0.8695605010E-03       4    9    1        -0.3075465848E-01      0.1145101173E+00
          0                 3           1             3    7     1       0.5921391623E-04       4    9    1         0.2152826857E-02      0.8015618772E-02

    ------------------------------------------------
       NWT REQUIRED            3 OUTER ITERATIONS 
       AND A TOTAL OF          5 INNER ITERATIONS.
    ------------------------------------------------

 NO OUTPUT CONTROL FOR STRESS PERIOD   41   TIME STEP    1
 
 SOLVING FOR HEAD 
                                                   Max.-Head-Change                         Max.-Flux-Residual
  Residual-Control   Outer-Iter.   Inner-Iter.     Column Row Layer    Maximum-Head-Change  Column Row Layer    Maximum-Flux-Residual          L2-NORM 
          0                 1           2             4    7     1       0.1008681803E-01       4    7    1         0.5271623977E+00      0.1532372424E+01
          0                 2           2             4    7     1      -0.1243261691E-01       4    7    1        -0.6676783450E+00      0.1622218714E+01
          0                 3           2             4    7     1       0.8455264297E-03       4    7    1         0.4667711004E-01      0.1134249634E+00
          0                 4           1             4    7     1      -0.3364429990E-04       4    7    1        -0.1909097196E-02      0.4639089766E-02

    ------------------------------------------------
       NWT REQUIRED            4 OUTER ITERATIONS 
       AND A TOTAL OF          7 INNER ITERATIONS.
    ------------------------------------------------

 NO OUTPUT CONTROL FOR STRESS PERIOD   41   TIME STEP    2
 
 SOLVING FOR HEAD 
                                                   Max.-Head-Change                         Max.-Flux-Residual
  Residual-Control   Outer-Iter.   Inner-Iter.     Column Row Layer    Maximum-Head-Change  Column Row Layer    Maximum-Flux-Residual          L2-NORM 
          0                 1           2             4    7     1       0.1009598031E-01       4    7    1         0.5273775032E+00      0.1533950042E+01
          0                 2           2             4    7     1      -0.1252628305E-01       4    7    1        -0.6726818937E+00      0.1636334867E+01
          0                 3           2             4    7     1       0.8519842229E-03       4    7    1         0.4703164500E-01      0.1144298413E+00
          0                 4           1             4    7     1      -0.3390126148E-04       4    7    1        -0.1923597687E-02      0.4680189214E-02

    ------------------------------------------------
       NWT REQUIRED            4 OUTER ITERATIONS 
       AND A TOTAL OF          7 INNER ITERATIONS.
    ------------------------------------------------

 NO OUTPUT CONTROL FOR STRESS PERIOD   41   TIME STEP    3
 
 SOLVING FOR HEAD 
                                                   Max.-Head-Change                         Max.-Flux-Residual
  Residual-Control   Outer-Iter.   Inner-Iter.     Column Row Layer    Maximum-Head-Change  Column Row Layer    Maximum-Flux-Residual          L2-NORM 
          0                 1           2             4    7     1       0.1011020674E-01       4    7    1         0.5278748441E+00      0.1536226657E+01
          0                 2           2             4    7     1      -0.1252775391E-01       4    7    1        -0.6727361794E+00      0.1638222538E+01
          0                 3           2             4    7     1       0.8521684102E-03       4    7    1         0.4704000211E-01      0.1145745786E+00
          0                 4           1             4    7     1      -0.3390859028E-04       4    7    1        -0.1923939494E-02      0.4686109063E-02

    ------------------------------------------------
       NWT REQUIRED            4 OUTER ITERATIONS 
       AND A TOTAL OF          7 INNER ITERATIONS.
    ------------------------------------------------

 NO OUTPUT CONTROL FOR STRESS PERIOD   41   TIME STEP    4
 
 SOLVING FOR HEAD 
                                                   Max.-Head-Change                         Max.-Flux-Residual
  Residual-Control   Outer-Iter.   Inner-Iter.     Column Row Layer    Maximum-Head-Change  Column Row Layer    Maximum-Flux-Residual          L2-NORM 
          0                 1           2             4    7     1       0.1012879951E-01       4    7    1         0.5286197674E+00      0.1539033540E+01
          0                 2           2             4    7     1      -0.1252964625E-01       4    7    1        -0.6728151744E+00      0.1640028767E+01
          0                 3           2             4    7     1       0.8523780462E-03       4    7    1         0.4705003946E-01      0.1147071112E+00
          0                 4           1             4    7     1      -0.3391693173E-04       4    7    1        -0.1924350015E-02      0.4691643402E-02

    ------------------------------------------------
       NWT REQUIRED            4 OUTER ITERATIONS 
       AND A TOTAL OF          7 INNER ITERATIONS.
    ------------------------------------------------

 NO OUTPUT CONTROL FOR STRESS PERIOD   41   TIME STEP    5
 
 SOLVING FOR HEAD 
                                                   Max.-Head-Change                         Max.-Flux-Residual
  Residual-Control   Outer-Iter.   Inner-Iter.     Column Row Layer    Maximum-Head-Change  Column Row Layer    Maximum-Flux-Residual          L2-NORM 
          0                 1           2             4    7     1       0.1015123467E-01       4    7    1         0.5295837497E+00      0.1542272152E+01
          0                 2           2             4    7     1      -0.1253190942E-01       4    7    1        -0.6729160164E+00      0.1641759616E+01
          0                 3           2             4    7     1       0.8526100012E-03       4    7    1         0.4706154691E-01      0.1148312620E+00
          0                 4           1             4    7     1      -0.3392616140E-04       4    7    1        -0.1924820667E-02      0.4696606915E-02

    ------------------------------------------------
       NWT REQUIRED            4 OUTER ITERATIONS 
       AND A TOTAL OF          7 INNER ITERATIONS.
    ------------------------------------------------

 NO OUTPUT CONTROL FOR STRESS PERIOD   41   TIME STEP    6
 
 SOLVING FOR HEAD 
                                                   Max.-Head-Change                         Max.-Flux-Residual
  Residual-Control   Outer-Iter.   Inner-Iter.     Column Row Layer    Maximum-Head-Change  Column Row Layer    Maximum-Flux-Residual          L2-NORM 
          0                 1           2             4    7     1       0.1017715881E-01       4    7    1         0.5307469536E+00      0.1545873396E+01
          0                 2           2             4    7     1      -0.1253451011E-01       4    7    1        -0.6730367129E+00      0.1643421212E+01
          0                 3           2             4    7     1       0.8528630592E-03       4    7    1         0.4707437601E-01      0.1149493631E+00
          0                 4           1             4    7     1      -0.3393623092E-04       4    7    1        -0.1925345387E-02      0.4701437308E-02

    ------------------------------------------------
       NWT REQUIRED            4 OUTER ITERATIONS 
       AND A TOTAL OF          7 INNER ITERATIONS.
    ------------------------------------------------

 NO OUTPUT CONTROL FOR STRESS PERIOD   41   TIME STEP    7
 
 SOLVING FOR HEAD 
                                                   Max.-Head-Change                         Max.-Flux-Residual
  Residual-Control   Outer-Iter.   Inner-Iter.     Column Row Layer    Maximum-Head-Change  Column Row Layer    Maximum-Flux-Residual          L2-NORM 
          0                 1           2             4    7     1       0.1020637256E-01       4    7    1         0.5320983807E+00      0.1549759512E+01
          0                 2           2             4    7     1      -0.1253738202E-01       4    7    1        -0.6731734919E+00      0.1645016039E+01
          0                 3           2             4    7     1       0.8530870658E-03       4    7    1         0.4708559062E-01      0.1150616665E+00
          0                 4           1             4    7     1      -0.3394514444E-04       4    7    1        -0.1925804067E-02      0.4706030610E-02

    ------------------------------------------------
       NWT REQUIRED            4 OUTER ITERATIONS 
       AND A TOTAL OF          7 INNER ITERATIONS.
    ------------------------------------------------

 NO OUTPUT CONTROL FOR STRESS PERIOD   41   TIME STEP    8
 
 SOLVING FOR HEAD 
                                                   Max.-Head-Change                         Max.-Flux-Residual
  Residual-Control   Outer-Iter.   Inner-Iter.     Column Row Layer    Maximum-Head-Change  Column Row Layer    Maximum-Flux-Residual          L2-NORM 
          0                 1           2             4    7     1       0.1023855631E-01       4    7    1         0.5336203678E+00      0.1553874945E+01
          0                 2           2             4    7     1      -0.1254051367E-01       4    7    1        -0.6733256875E+00      0.1646547645E+01
          0                 3           2             4    7     1       0.8533003250E-03       4    7    1         0.4709624471E-01      0.1151688738E+00
          0                 4           1             4    7     1      -0.3395363026E-04       4    7    1        -0.1926239814E-02      0.4710415676E-02

    ------------------------------------------------
       NWT REQUIRED            4 OUTER ITERATIONS 
       AND A TOTAL OF          7 INNER ITERATIONS.
    ------------------------------------------------

 NO OUTPUT CONTROL FOR STRESS PERIOD   41   TIME STEP    9
 
 SOLVING FOR HEAD 
                                                   Max.-Head-Change                         Max.-Flux-Residual
  Residual-Control   Outer-Iter.   Inner-Iter.     Column Row Layer    Maximum-Head-Change  Column Row Layer    Maximum-Flux-Residual          L2-NORM 
          0                 1           2             4    7     1       0.1027313798E-01       4    8    1         0.5372544039E+00      0.1558159910E+01
          0                 2           2             4    7     1      -0.1254387861E-01       4    8    1        -0.6736891977E+00      0.1648018670E+01
          0                 3           2             4    7     1       0.8535294703E-03       4    8    1         0.4712141068E-01      0.1152718388E+00
          0                 4           1             4    7     1      -0.3396274814E-04       4    8    1        -0.1927270400E-02      0.4714626695E-02

    ------------------------------------------------
       NWT REQUIRED            4 OUTER ITERATIONS 
       AND A TOTAL OF          7 INNER ITERATIONS.
    ------------------------------------------------

 NO OUTPUT CONTROL FOR STRESS PERIOD   41   TIME STEP   10
 
 SOLVING FOR HEAD 
                                                   Max.-Head-Change                         Max.-Flux-Residual
  Residual-Control   Outer-Iter.   Inner-Iter.     Column Row Layer    Maximum-Head-Change  Column Row Layer    Maximum-Flux-Residual          L2-NORM 
          0                 1           2             4    8     1       0.1035038340E-01       4    8    1         0.5427596960E+00      0.1562579301E+01
          0                 2           2             4    7     1      -0.1254747717E-01       4    8    1        -0.6742397352E+00      0.1649432445E+01
          0                 3           2             4    7     1       0.8537745228E-03       4    8    1         0.4715994722E-01      0.1153707994E+00
          0                 4           1             4    7     1      -0.3397249876E-04       4    8    1        -0.1928846545E-02      0.4718673879E-02

    ------------------------------------------------
       NWT REQUIRED            4 OUTER ITERATIONS 
       AND A TOTAL OF          7 INNER ITERATIONS.
    ------------------------------------------------

 NO OUTPUT CONTROL FOR STRESS PERIOD   41   TIME STEP   11
 
 SOLVING FOR HEAD 
                                                   Max.-Head-Change                         Max.-Flux-Residual
  Residual-Control   Outer-Iter.   Inner-Iter.     Column Row Layer    Maximum-Head-Change  Column Row Layer    Maximum-Flux-Residual          L2-NORM 
          0                 1           2             4    8     1       0.1044895501E-01       4    8    1         0.5480672693E+00      0.1567095237E+01
          0                 2           2             4    7     1      -0.1255128389E-01       4    8    1        -0.6747705005E+00      0.1650791648E+01
          0                 3           2             4    7     1       0.8540337504E-03       4    8    1         0.4719709975E-01      0.1154659403E+00
          0                 4           1             4    7     1      -0.3398281362E-04       4    8    1        -0.1930366100E-02      0.4722566378E-02

    ------------------------------------------------
       NWT REQUIRED            4 OUTER ITERATIONS 
       AND A TOTAL OF          7 INNER ITERATIONS.
    ------------------------------------------------

 NO OUTPUT CONTROL FOR STRESS PERIOD   41   TIME STEP   12
 
 SOLVING FOR HEAD 
                                                   Max.-Head-Change                         Max.-Flux-Residual
  Residual-Control   Outer-Iter.   Inner-Iter.     Column Row Layer    Maximum-Head-Change  Column Row Layer    Maximum-Flux-Residual          L2-NORM 
          0                 1           2             4    8     1       0.1054410507E-01       4    8    1         0.5531908430E+00      0.1571666290E+01
          0                 2           2             4    7     1      -0.1255527436E-01       4    8    1        -0.6752828657E+00      0.1652098052E+01
          0                 3           2             4    7     1       0.8543054894E-03       4    8    1         0.4723296430E-01      0.1155573828E+00
          0                 4           1             4    7     1      -0.3399362651E-04       4    8    1        -0.1931832953E-02      0.4726305138E-02

    ------------------------------------------------
       NWT REQUIRED            4 OUTER ITERATIONS 
       AND A TOTAL OF          7 INNER ITERATIONS.
    ------------------------------------------------

 NO OUTPUT CONTROL FOR STRESS PERIOD   41   TIME STEP   13
 
 SOLVING FOR HEAD 
                                                   Max.-Head-Change                         Max.-Flux-Residual
  Residual-Control   Outer-Iter.   Inner-Iter.     Column Row Layer    Maximum-Head-Change  Column Row Layer    Maximum-Flux-Residual          L2-NORM 
          0                 1           2             4    8     1       0.1063595697E-01       4    8    1         0.5581370185E+00      0.1576278121E+01
          0                 2           2             4    7     1      -0.1255941386E-01       4    8    1        -0.6757774909E+00      0.1653354778E+01
          0                 3           2             4    7     1       0.8545873771E-03       4    8    1         0.4726758710E-01      0.1156453512E+00
          0                 4           1             4    7     1      -0.3400484305E-04       4    8    1        -0.1933249028E-02      0.4729903236E-02

    ------------------------------------------------
       NWT REQUIRED            4 OUTER ITERATIONS 
       AND A TOTAL OF          7 INNER ITERATIONS.
    ------------------------------------------------

 NO OUTPUT CONTROL FOR STRESS PERIOD   41   TIME STEP   14
 
 SOLVING FOR HEAD 
                                                   Max.-Head-Change                         Max.-Flux-Residual
  Residual-Control   Outer-Iter.   Inner-Iter.     Column Row Layer    Maximum-Head-Change  Column Row Layer    Maximum-Flux-Residual          L2-NORM 
          0                 1           2             4    8     1       0.1072439770E-01       4    8    1         0.5628993091E+00      0.1580892809E+01
          0                 2           2             4    7     1      -0.1256368162E-01       4    8    1        -0.6762537274E+00      0.1654562567E+01
          0                 3           2             4    7     1       0.8548779975E-03       4    8    1         0.4730092271E-01      0.1157298912E+00
          0                 4           1             4    7     1      -0.3401640727E-04       4    8    1        -0.1934612486E-02      0.4733360611E-02

    ------------------------------------------------
       NWT REQUIRED            4 OUTER ITERATIONS 
       AND A TOTAL OF          7 INNER ITERATIONS.
    ------------------------------------------------

 NO OUTPUT CONTROL FOR STRESS PERIOD   41   TIME STEP   15
 
 SOLVING FOR HEAD 
                                                   Max.-Head-Change                         Max.-Flux-Residual
  Residual-Control   Outer-Iter.   Inner-Iter.     Column Row Layer    Maximum-Head-Change  Column Row Layer    Maximum-Flux-Residual          L2-NORM 
          0                 1           2             4    8     1       0.1080979304E-01       4    8    1         0.5674976254E+00      0.1585501452E+01
          0                 2           2             4    7     1      -0.1256807236E-01       4    8    1        -0.6767135662E+00      0.1655724765E+01
          0                 3           2             4    7     1       0.8551769921E-03       4    8    1         0.4733311053E-01      0.1158112403E+00
          0                 4           1             4    7     1      -0.3402830421E-04       4    8    1        -0.1935928957E-02      0.4736703671E-02

    ------------------------------------------------
       NWT REQUIRED            4 OUTER ITERATIONS 
       AND A TOTAL OF          7 INNER ITERATIONS.
    ------------------------------------------------

 NO OUTPUT CONTROL FOR STRESS PERIOD   41   TIME STEP   16
 
 SOLVING FOR HEAD 
                                                   Max.-Head-Change                         Max.-Flux-Residual
  Residual-Control   Outer-Iter.   Inner-Iter.     Column Row Layer    Maximum-Head-Change  Column Row Layer    Maximum-Flux-Residual          L2-NORM 
          0                 1           2             4    8     1       0.1089213615E-01       4    8    1         0.5719316045E+00      0.1590078602E+01
          0                 2           2             4    7     1      -0.1257256821E-01       4    8    1        -0.6771569712E+00      0.1656842830E+01
          0                 3           2             4    7     1       0.8554831436E-03       4    8    1         0.4736414803E-01      0.1158895046E+00
          0                 4           1             4    7     1      -0.3404048633E-04       4    8    1        -0.1937198390E-02      0.4739889110E-02

    ------------------------------------------------
       NWT REQUIRED            4 OUTER ITERATIONS 
       AND A TOTAL OF          7 INNER ITERATIONS.
    ------------------------------------------------

 NO OUTPUT CONTROL FOR STRESS PERIOD   41   TIME STEP   17
 
 SOLVING FOR HEAD 
                                                   Max.-Head-Change                         Max.-Flux-Residual
  Residual-Control   Outer-Iter.   Inner-Iter.     Column Row Layer    Maximum-Head-Change  Column Row Layer    Maximum-Flux-Residual          L2-NORM 
          0                 1           2             4    8     1       0.1097166426E-01       5    8    1         0.5763668660E+00      0.1594615416E+01
          0                 2           2             4    7     1      -0.1257715210E-01       5    8    1        -0.6776005241E+00      0.1657918679E+01
          0                 3           2             4    7     1       0.8557952905E-03       5    8    1         0.4739529845E-01      0.1159648073E+00
          0                 4           1             4    7     1      -0.3405290710E-04       5    8    1        -0.1938471985E-02      0.4742969166E-02

    ------------------------------------------------
       NWT REQUIRED            4 OUTER ITERATIONS 
       AND A TOTAL OF          7 INNER ITERATIONS.
    ------------------------------------------------

 NO OUTPUT CONTROL FOR STRESS PERIOD   41   TIME STEP   18
 
 SOLVING FOR HEAD 
                                                   Max.-Head-Change                         Max.-Flux-Residual
  Residual-Control   Outer-Iter.   Inner-Iter.     Column Row Layer    Maximum-Head-Change  Column Row Layer    Maximum-Flux-Residual          L2-NORM 
          0                 1           2             4    8     1       0.1104824566E-01       5    8    1         0.5818972566E+00      0.1599099704E+01
          0                 2           2             4    7     1      -0.1258179572E-01       5    8    1        -0.6781535700E+00      0.1658954036E+01
          0                 3           2             4    7     1       0.8561115036E-03       5    8    1         0.4743401104E-01      0.1160372802E+00
          0                 4           1             4    7     1      -0.3406548962E-04       5    8    1        -0.1940055323E-02      0.4745932972E-02

    ------------------------------------------------
       NWT REQUIRED            4 OUTER ITERATIONS 
       AND A TOTAL OF          7 INNER ITERATIONS.
    ------------------------------------------------

 NO OUTPUT CONTROL FOR STRESS PERIOD   41   TIME STEP   19
 
 SOLVING FOR HEAD 
                                                   Max.-Head-Change                         Max.-Flux-Residual
  Residual-Control   Outer-Iter.   Inner-Iter.     Column Row Layer    Maximum-Head-Change  Column Row Layer    Maximum-Flux-Residual          L2-NORM 
          0                 1           2             4    8     1       0.1112223281E-01       5    8    1         0.5871288351E+00      0.1603524356E+01
          0                 2           2             4    7     1      -0.1258649861E-01       5    8    1        -0.6786767343E+00      0.1659951192E+01
          0                 3           2             4    7     1       0.8564317534E-03       5    8    1         0.4747063194E-01      0.1161070776E+00
          0                 4           1             4    7     1      -0.3407823252E-04       5    8    1        -0.1941553136E-02      0.4748789145E-02

    ------------------------------------------------
       NWT REQUIRED            4 OUTER ITERATIONS 
       AND A TOTAL OF          7 INNER ITERATIONS.
    ------------------------------------------------

 NO OUTPUT CONTROL FOR STRESS PERIOD   41   TIME STEP   20
 
 SOLVING FOR HEAD 
                                                   Max.-Head-Change                         Max.-Flux-Residual
  Residual-Control   Outer-Iter.   Inner-Iter.     Column Row Layer    Maximum-Head-Change  Column Row Layer    Maximum-Flux-Residual          L2-NORM 
          0                 1           2             4    8     1       0.1119360294E-01       5    8    1         0.5920650936E+00      0.1607871178E+01
          0                 2           2             4    7     1      -0.1259124763E-01       5    8    1        -0.6791703662E+00      0.1660910903E+01
          0                 3           2             4    7     1       0.8567551434E-03       5    8    1         0.4750518562E-01      0.1161742536E+00
          0                 4           1             4    7     1      -0.3409110056E-04       5    8    1        -0.1942966383E-02      0.4751534818E-02

    ------------------------------------------------
       NWT REQUIRED            4 OUTER ITERATIONS 
       AND A TOTAL OF          7 INNER ITERATIONS.
    ------------------------------------------------

 NO OUTPUT CONTROL FOR STRESS PERIOD   41   TIME STEP   21
 
 SOLVING FOR HEAD 
                                                   Max.-Head-Change                         Max.-Flux-Residual
  Residual-Control   Outer-Iter.   Inner-Iter.     Column Row Layer    Maximum-Head-Change  Column Row Layer    Maximum-Flux-Residual          L2-NORM 
          0                 1           2             4    8     1       0.1126246224E-01       5    8    1         0.5967481290E+00      0.1612143503E+01
          0                 2           2             4    7     1      -0.1259603021E-01       5    8    1        -0.6796386754E+00      0.1661835149E+01
          0                 3           2             4    7     1       0.8570808193E-03       5    8    1         0.4753796675E-01      0.1162389494E+00
          0                 4           1             4    7     1      -0.3410405921E-04       5    8    1        -0.1944307141E-02      0.4754182037E-02

    ------------------------------------------------
       NWT REQUIRED            4 OUTER ITERATIONS 
       AND A TOTAL OF          7 INNER ITERATIONS.
    ------------------------------------------------

 NO OUTPUT CONTROL FOR STRESS PERIOD   41   TIME STEP   22
 
 SOLVING FOR HEAD 
                                                   Max.-Head-Change                         Max.-Flux-Residual
  Residual-Control   Outer-Iter.   Inner-Iter.     Column Row Layer    Maximum-Head-Change  Column Row Layer    Maximum-Flux-Residual          L2-NORM 
          0                 1           2             4    8     1       0.1132890113E-01       5    8    1         0.6011704380E+00      0.1616326633E+01
          0                 2           2             4    7     1      -0.1260082211E-01       5    8    1        -0.6800809117E+00      0.1662724858E+01
          0                 3           2             4    7     1       0.8574071288E-03       5    8    1         0.4756892282E-01      0.1163012255E+00
          0                 4           1             4    7     1      -0.3411704365E-04       5    8    1        -0.1945573242E-02      0.4756729511E-02

    ------------------------------------------------
       NWT REQUIRED            4 OUTER ITERATIONS 
       AND A TOTAL OF          7 INNER ITERATIONS.
    ------------------------------------------------

 NO OUTPUT CONTROL FOR STRESS PERIOD   41   TIME STEP   23
 
 SOLVING FOR HEAD 
                                                   Max.-Head-Change                         Max.-Flux-Residual
  Residual-Control   Outer-Iter.   Inner-Iter.     Column Row Layer    Maximum-Head-Change  Column Row Layer    Maximum-Flux-Residual          L2-NORM 
          0                 1           2             4    8     1       0.1139301609E-01       5    8    1         0.6053640496E+00      0.1620426640E+01
          0                 2           2             4    7     1      -0.1260562688E-01       5    8    1        -0.6805002779E+00      0.1663582460E+01
          0                 3           2             4    7     1       0.8577343145E-03       5    8    1         0.4759827800E-01      0.1163612567E+00
          0                 4           1             4    7     1      -0.3413006239E-04       5    8    1        -0.1946773869E-02      0.4759183976E-02

    ------------------------------------------------
       NWT REQUIRED            4 OUTER ITERATIONS 
       AND A TOTAL OF          7 INNER ITERATIONS.
    ------------------------------------------------

 NO OUTPUT CONTROL FOR STRESS PERIOD   41   TIME STEP   24
 
 SOLVING FOR HEAD 
                                                   Max.-Head-Change                         Max.-Flux-Residual
  Residual-Control   Outer-Iter.   Inner-Iter.     Column Row Layer    Maximum-Head-Change  Column Row Layer    Maximum-Flux-Residual          L2-NORM 
          0                 1           2             4    8     1       0.1145489592E-01       5    8    1         0.6093352573E+00      0.1624434014E+01
          0                 2           2             4    7     1      -0.1261042208E-01       5    8    1        -0.6808974033E+00      0.1664408681E+01
          0                 3           2             4    7     1       0.8580608487E-03       5    8    1         0.4762607637E-01      0.1164190902E+00
          0                 4           1             4    7     1      -0.3414305592E-04       5    8    1        -0.1947910854E-02      0.4761549557E-02

    ------------------------------------------------
       NWT REQUIRED            4 OUTER ITERATIONS 
       AND A TOTAL OF          7 INNER ITERATIONS.
    ------------------------------------------------

 NO OUTPUT CONTROL FOR STRESS PERIOD   41   TIME STEP   25
 
 SOLVING FOR HEAD 
                                                   Max.-Head-Change                         Max.-Flux-Residual
  Residual-Control   Outer-Iter.   Inner-Iter.     Column Row Layer    Maximum-Head-Change  Column Row Layer    Maximum-Flux-Residual          L2-NORM 
          0                 1           2             5    8     1       0.1152321900E-01       5    8    1         0.6130976906E+00      0.1628348018E+01
          0                 2           2             4    7     1      -0.1261522554E-01       5    8    1        -0.6812736511E+00      0.1665204585E+01
          0                 3           2             4    7     1       0.8583879445E-03       5    8    1         0.4765241334E-01      0.1164748469E+00
          0                 4           1             4    7     1      -0.3415607121E-04       5    8    1        -0.1948988023E-02      0.4763951638E-02

    ------------------------------------------------
       NWT REQUIRED            4 OUTER ITERATIONS 
       AND A TOTAL OF          7 INNER ITERATIONS.
    ------------------------------------------------

 NO OUTPUT CONTROL FOR STRESS PERIOD   41   TIME STEP   26
 
 SOLVING FOR HEAD 
                                                   Max.-Head-Change                         Max.-Flux-Residual
  Residual-Control   Outer-Iter.   Inner-Iter.     Column Row Layer    Maximum-Head-Change  Column Row Layer    Maximum-Flux-Residual          L2-NORM 
          0                 1           2             5    8     1       0.1158830137E-01       5    8    1         0.6166641375E+00      0.1632169406E+01
          0                 2           2             4    7     1      -0.1262000256E-01       5    8    1        -0.6816303000E+00      0.1665971833E+01
          0                 3           2             4    7     1       0.8560776410E-03       5    8    1         0.4767737838E-01      0.1164575430E+00
          0                 4           1             4    7     1      -0.3406413503E-04       5    8    1        -0.1950009088E-02      0.4763121886E-02

    ------------------------------------------------
       NWT REQUIRED            4 OUTER ITERATIONS 
       AND A TOTAL OF          7 INNER ITERATIONS.
    ------------------------------------------------

 NO OUTPUT CONTROL FOR STRESS PERIOD   41   TIME STEP   27
 
 SOLVING FOR HEAD 
                                                   Max.-Head-Change                         Max.-Flux-Residual
  Residual-Control   Outer-Iter.   Inner-Iter.     Column Row Layer    Maximum-Head-Change  Column Row Layer    Maximum-Flux-Residual          L2-NORM 
          0                 1           2             5    8     1       0.1165004200E-01       5    8    1         0.6200464055E+00      0.1635851350E+01
          0                 2           2             4    7     1      -0.1262489857E-01       5    8    1        -0.6819685307E+00      0.1666714036E+01
          0                 3           2             4    8     1       0.8535591900E-03       5    8    1         0.4770105421E-01      0.1164321735E+00
          0                 4           1             4    8     1      -0.3396389792E-04       5    8    1        -0.1950977438E-02      0.4762084564E-02

    ------------------------------------------------
       NWT REQUIRED            4 OUTER ITERATIONS 
       AND A TOTAL OF          7 INNER ITERATIONS.
    ------------------------------------------------

 NO OUTPUT CONTROL FOR STRESS PERIOD   41   TIME STEP   28
 
 SOLVING FOR HEAD 
                                                   Max.-Head-Change                         Max.-Flux-Residual
  Residual-Control   Outer-Iter.   Inner-Iter.     Column Row Layer    Maximum-Head-Change  Column Row Layer    Maximum-Flux-Residual          L2-NORM 
          0                 1           2             5    8     1       0.1170863874E-01       5    8    1         0.6232553877E+00      0.1639421908E+01
          0                 2           2             4    7     1      -0.1263549574E-01       5    8    1        -0.6822894326E+00      0.1667410272E+01
          0                 3           2             4    7     1       0.8597693215E-03       5    8    1         0.4772351704E-01      0.1166292294E+00
          0                 4           1             4    7     1      -0.3421103094E-04       5    8    1        -0.1951896174E-02      0.4770144238E-02

    ------------------------------------------------
       NWT REQUIRED            4 OUTER ITERATIONS 
       AND A TOTAL OF          7 INNER ITERATIONS.
    ------------------------------------------------

 NO OUTPUT CONTROL FOR STRESS PERIOD   41   TIME STEP   29
 
 SOLVING FOR HEAD 
                                                   Max.-Head-Change                         Max.-Flux-Residual
  Residual-Control   Outer-Iter.   Inner-Iter.     Column Row Layer    Maximum-Head-Change  Column Row Layer    Maximum-Flux-Residual          L2-NORM 
          0                 1           2             5    8     1       0.1176427483E-01       5    8    1         0.6263014497E+00      0.1642900808E+01
          0                 2           2             4    7     1      -0.1263989880E-01       5    8    1        -0.6825940422E+00      0.1668090443E+01
          0                 3           2             4    7     1       0.8600691549E-03       5    8    1         0.4774483942E-01      0.1166768383E+00
          0                 4           1             4    7     1      -0.3422296162E-04       5    8    1        -0.1952768255E-02      0.4772091282E-02

    ------------------------------------------------
       NWT REQUIRED            4 OUTER ITERATIONS 
       AND A TOTAL OF          7 INNER ITERATIONS.
    ------------------------------------------------

 NO OUTPUT CONTROL FOR STRESS PERIOD   41   TIME STEP   30



 STREAM LISTING     PERIOD     41   STEP       30

 LAYER ROW COL. STREAM  RCH.  FLOW INTO     FLOW TO   FLOW OUT OF   OVRLND.     DIRECT     STREAM       STREAM     STREAM     STREAM   STREAMBED  STREAMBED
                SEG.NO.  NO.  STRM. RCH.    AQUIFER    STRM. RCH.    RUNOFF     PRECIP       ET          HEAD       DEPTH      WIDTH   CONDCTNC.   GRADIENT

   1    1    1     1     1    1.9000E+01  2.1427E-01   1.8786E+01  0.000E+00  0.000E+00  0.000E+00  1.09413E+03  1.082E+00  1.166E+01  5.249E-02  1.361E+00
   1    2    2     1     2    1.8786E+01  3.3054E-01   1.8455E+01  0.000E+00  0.000E+00  0.000E+00  1.08914E+03  1.077E+00  1.158E+01  8.107E-02  1.359E+00
   1    3    3     1     3    1.8455E+01  2.8064E-01   1.8175E+01  0.000E+00  0.000E+00  0.000E+00  1.08349E+03  1.072E+00  1.149E+01  6.892E-02  1.357E+00
   1    3    4     1     4    1.8175E+01  2.5740E-01   1.7917E+01  0.000E+00  0.000E+00  0.000E+00  1.07848E+03  1.068E+00  1.140E+01  6.328E-02  1.356E+00
   1    4    5     2     1    1.5917E+01  3.0542E-01   1.5612E+01  0.000E+00  0.000E+00  0.000E+00  1.07285E+03  9.157E-01  1.200E+01  7.800E-02  1.305E+00
   1    5    6     2     2    1.5612E+01  2.3438E-01   1.5377E+01  0.000E+00  0.000E+00  0.000E+00  1.06742E+03  9.063E-01  1.200E+01  6.000E-02  1.302E+00
   1    6    6     2     3    1.5377E+01  2.3388E-01   1.5143E+01  0.000E+00  0.000E+00  0.000E+00  1.06269E+03  8.980E-01  1.200E+01  6.000E-02  1.299E+00
   1    7    6     2     4    1.5143E+01  2.3338E-01   1.4910E+01  0.000E+00  0.000E+00  0.000E+00  1.05797E+03  8.897E-01  1.200E+01  6.000E-02  1.297E+00
   1    8    6     2     5    1.4910E+01  2.3289E-01   1.4677E+01  0.000E+00  0.000E+00  0.000E+00  1.05324E+03  8.814E-01  1.200E+01  6.000E-02  1.294E+00
   1    3    5     3     1    2.0000E+00  2.8252E-01   1.7175E+00  0.000E+00  0.000E+00  0.000E+00  1.07555E+03  1.909E+00  9.636E+00  7.227E-02  1.955E+00
   1    3    6     3     2    1.7175E+00  2.4905E-01   1.4684E+00  0.000E+00  0.000E+00  0.000E+00  1.07264E+03  1.727E+00  8.909E+00  6.682E-02  1.864E+00
   1    3    7     3     3    1.4684E+00  1.9718E-01   1.2712E+00  0.000E+00  0.000E+00  0.000E+00  1.06987E+03  1.555E+00  8.218E+00  5.547E-02  1.777E+00
   1    4    8     3     4    1.2712E+00  2.2567E-01   1.0456E+00  0.000E+00  0.000E+00  0.000E+00  1.06682E+03  1.364E+00  7.455E+00  6.709E-02  1.682E+00
   1    5    8     3     5    1.0456E+00  1.5790E-01   8.8768E-01  0.000E+00  0.000E+00  0.000E+00  1.06362E+03  1.164E+00  6.655E+00  4.991E-02  1.582E+00
   1    6    8     3     6    8.8768E-01  5.5980E-02   8.3170E-01  0.000E+00  0.000E+00  0.000E+00  1.06158E+03  1.036E+00  6.145E+00  1.844E-02  1.518E+00
   1    5   10     4     1    1.0000E+01  9.0919E-02   9.9091E+00  0.000E+00  0.000E+00  0.000E+00  1.07836E+03  6.368E-01  1.000E+01  2.500E-02  1.212E+00
   1    5    9     4     2    9.9091E+00  1.8158E-01   9.7275E+00  0.000E+00  0.000E+00  0.000E+00  1.07154E+03  6.315E-01  1.000E+01  5.000E-02  1.211E+00
   1    6    8     4     3    9.7275E+00  1.2689E-01   9.6006E+00  0.000E+00  0.000E+00  0.000E+00  1.06381E+03  6.256E-01  1.000E+01  3.500E-02  1.209E+00
   1    6    8     5     1    1.0432E+01  2.2686E-01   1.0205E+01  0.000E+00  0.000E+00  0.000E+00  1.05868E+03  6.790E-01  1.542E+01  6.166E-02  1.226E+00
   1    7    7     5     2    1.0205E+01  2.7894E-01   9.9265E+00  0.000E+00  0.000E+00  0.000E+00  1.05417E+03  6.732E-01  1.519E+01  7.594E-02  1.224E+00
   1    8    7     5     3    9.9265E+00  1.9221E-01   9.7343E+00  0.000E+00  0.000E+00  0.000E+00  1.04992E+03  6.676E-01  1.497E+01  5.241E-02  1.223E+00
   1    8    6     5     4    9.7343E+00  1.3577E-01   9.5985E+00  0.000E+00  0.000E+00  0.000E+00  1.04691E+03  6.637E-01  1.482E+01  3.706E-02  1.221E+00
   1    9    6     6     1    2.4276E+01  2.5176E-01   2.4024E+01  0.000E+00  0.000E+00  0.000E+00  1.04392E+03  1.196E+00  1.200E+01  6.000E-02  1.399E+00
   1   10    7     6     2    2.4024E+01  2.5131E-01   2.3773E+01  0.000E+00  0.000E+00  0.000E+00  1.03937E+03  1.188E+00  1.200E+01  6.000E-02  1.396E+00
   1   11    7     6     3    2.3773E+01  2.5086E-01   2.3522E+01  0.000E+00  0.000E+00  0.000E+00  1.03482E+03  1.181E+00  1.200E+01  6.000E-02  1.394E+00
   1   12    7     6     4    2.3522E+01  2.5041E-01   2.3271E+01  0.000E+00  0.000E+00  0.000E+00  1.03026E+03  1.173E+00  1.200E+01  6.000E-02  1.391E+00
   1   13    7     6     5    2.3271E+01  1.0464E-02   2.3261E+01  0.000E+00  0.000E+00  0.000E+00  1.02708E+03  1.170E+00  1.200E+01  2.400E-02  1.453E-01
   1   14    9     7     1    1.5000E+02  1.3673E+00   1.4863E+02  0.000E+00  0.000E+00  0.000E+00  1.03987E+03  2.288E+00  5.529E+01  5.593E-01  8.149E-01
   1   13    8     7     2    1.4863E+02  1.9610E+00   1.4667E+02  0.000E+00  0.000E+00  0.000E+00  1.03478E+03  2.279E+00  5.525E+01  6.147E-01  1.063E+00
   1   13    7     7     3    1.4667E+02  1.7007E+00   1.4497E+02  0.000E+00  0.000E+00  0.000E+00  1.02969E+03  2.269E+00  5.521E+01  5.584E-01  1.015E+00
   1   13    6     8     1    1.6823E+02  1.1376E+00   1.6709E+02  0.000E+00  0.000E+00  0.000E+00  1.02481E+03  2.937E+00  4.259E+01  4.340E-01  8.738E-01
   1   13    5     8     2    1.6709E+02  3.7628E-01   1.6672E+02  0.000E+00  0.000E+00  0.000E+00  1.01856E+03  2.932E+00  4.251E+01  4.332E-01  2.895E-01
   1   13    4     8     3    1.6672E+02 -1.7631E+00   1.6848E+02  0.000E+00  0.000E+00  0.000E+00  1.01231E+03  2.937E+00  4.258E+01  4.339E+00 -1.354E-01
   1   13    3     8     4    1.6848E+02 -3.3194E+00   1.7180E+02  0.000E+00  0.000E+00  0.000E+00  1.00608E+03  2.953E+00  4.282E+01  4.364E+00 -2.536E-01
   1   13    2     8     5    1.7180E+02 -2.4967E+00   1.7430E+02  0.000E+00  0.000E+00  0.000E+00  9.99847E+02  2.972E+00  4.309E+01  4.391E+00 -1.895E-01
   1   13    1     8     6    1.7430E+02 -1.9619E+00   1.7626E+02  0.000E+00  0.000E+00  0.000E+00  9.94861E+02  2.986E+00  4.330E+01  2.647E+00 -2.470E-01





UNSATURATED ZONE PACKAGE VOLUMETRIC BUDGET FOR  TIME STEP    30 STRESS PERIOD   41
  ------------------------------------------------------------------------------



     CUMULATIVE VOLUMES      L**3       RATES FOR THIS TIME STEP      L**3/T
     ------------------                 ------------------------

           IN:                                      IN:
           ---                                      ---
        INFILTRATION =  1404157685.5027          INFILTRATION =           4.5675

          OUT:                                     OUT:
          ----                                     ----
              UZF ET =  1290287169.3368                UZF ET =           4.5675
        UZF RECHARGE =   113794615.5447          UZF RECHARGE =       0.0000E+00

            IN - OUT =       75900.6212              IN - OUT =       0.0000E+00

          STORAGE:                                 STORAGE:
          --------                                 --------
      STORAGE CHANGE =       75902.4547        STORAGE CHANGE =      -3.7908E-12

 PERCENT DISCREPANCY IS DIFFERENCE BETWEEN IN-OUT MINUS CHANGE IN STORAGE
 DIVIDED BY THE AVERAGE OF IN AND OUT TIMES 100

 PERCENT DISCREPANCY =           0.00     PERCENT DISCREPANCY =           0.00






1
  VOLUMETRIC BUDGET FOR AGRICULTURAL FIELDS AT  END OF TIME STEP   30, STRESS PERIOD  41
  ------------------------------------------------------------------------------

     CUMULATIVE VOLUMES      L**3       RATES FOR THIS TIME STEP      L**3/T
     ------------------                 ------------------------

           IN:                                      IN:
           ---                                      ---
               AG WELLS  =  1314927744.0000                 AG WELLS  =           3.7200
      DIVERSION SEGMENTS =           0.0000        DIVERSION SEGMENTS =           0.0000
       IRRIGATION PONDS  =           0.0000         IRRIGATION PONDS  =           0.0000
           GW IRRIGATION =           0.0000             GW IRRIGATION =           0.0000
           SW IRRIGATION =           0.0000             SW IRRIGATION =           0.0000
        SYSTEM LOSSES GW =           0.0000          SYSTEM LOSSES GW =           0.0000
        SYSTEM LOSSES SW =           0.0000          SYSTEM LOSSES SW =           0.0000

                TOTAL IN =  1314927744.0000                  TOTAL IN =           3.7200

          OUT:                                     OUT:
          ----                                     ----
               AG WELLS  =           0.0000                 AG WELLS  =           0.0000
      DIVERSION SEGMENTS =           0.0000        DIVERSION SEGMENTS =           0.0000
       IRRIGATION PONDS  =           0.0000         IRRIGATION PONDS  =           0.0000
           GW IRRIGATION =  1314927744.0000             GW IRRIGATION =           3.7200
           SW IRRIGATION =           0.0000             SW IRRIGATION =           0.0000
        SYSTEM LOSSES GW =           0.0000          SYSTEM LOSSES GW =           0.0000
        SYSTEM LOSSES SW =           0.0000          SYSTEM LOSSES SW =           0.0000

               TOTAL OUT =  1314927744.0000                 TOTAL OUT =           3.7200

                IN - OUT =           0.0000                  IN - OUT =           0.0000

     PERCENT DISCREPANCY =           0.00         PERCENT DISCREPANCY =           0.00



1
  VOLUMETRIC BUDGET FOR ENTIRE MODEL AT END OF TIME STEP   30, STRESS PERIOD  41
  ------------------------------------------------------------------------------

     CUMULATIVE VOLUMES      L**3       RATES FOR THIS TIME STEP      L**3/T
     ------------------                 ------------------------

           IN:                                      IN:
           ---                                      ---
             STORAGE     =  1781542528.0000               STORAGE     =           3.4989
       CONSTANT HEAD     =           0.0000         CONSTANT HEAD     =           0.0000
     HEAD DEP BOUNDS     =    30114630.0000       HEAD DEP BOUNDS     =           0.2879
      STREAM LEAKAGE     =  1289283200.0000        STREAM LEAKAGE     =          12.2819
        UZF RECHARGE     =   113794720.0000          UZF RECHARGE     =           0.0000
               GW ET     =           0.0000                 GW ET     =           0.0000
     SURFACE LEAKAGE     =           0.0000       SURFACE LEAKAGE     =           0.0000
           AG WELLS      =           0.0000             AG WELLS      =           0.0000

                TOTAL IN =  3214735104.0000                  TOTAL IN =          16.0687

          OUT:                                     OUT:
          ----                                     ----
             STORAGE     =   778963776.0000               STORAGE     =           2.5185
       CONSTANT HEAD     =           0.0000         CONSTANT HEAD     =           0.0000
     HEAD DEP BOUNDS     =    30752822.0000       HEAD DEP BOUNDS     =           0.2889
      STREAM LEAKAGE     =  1072491136.0000        STREAM LEAKAGE     =           9.5412
        UZF RECHARGE     =           0.0000          UZF RECHARGE     =           0.0000
               GW ET     =    17607784.0000                 GW ET     =           0.0000
     SURFACE LEAKAGE     =           0.0000       SURFACE LEAKAGE     =           0.0000
           AG WELLS      =  1314927744.0000             AG WELLS      =           3.7200

               TOTAL OUT =  3214743296.0000                 TOTAL OUT =          16.0686

                IN - OUT =       -8192.0000                  IN - OUT =       1.5068E-04

     PERCENT DISCREPANCY =          -0.00         PERCENT DISCREPANCY =           0.00






         TIME SUMMARY AT END OF TIME STEP   30 IN STRESS PERIOD   41
                    SECONDS     MINUTES      HOURS       DAYS        YEARS
                    -----------------------------------------------------------
   TIME STEP LENGTH  87667.      1461.1      24.352      1.0147     2.77799E-03
 STRESS PERIOD TIME 2.63000E+06  43833.      730.56      30.440     8.33397E-02
         TOTAL TIME 1.05286E+08 1.75476E+06  29246.      1218.6      3.3363    
1
1
                            STRESS PERIOD NO.   42, LENGTH =   2630000.    
                            -----------------------------------------------

                              NUMBER OF TIME STEPS =    30

                               MULTIPLIER FOR DELT =     1.000

                            INITIAL TIME STEP SIZE =   87666.66    

 REUSING NON-PARAMETER GHB CELLS FROM LAST STRESS PERIOD

      2 GHB CELLS

 REUSING STREAM SEGMENT DATA FROM LAST STRESS PERIOD



            AREAL INFILTRATION RATE
 READING ON UNIT   19 WITH FORMAT: (FREE)              

            1           2           3           4           5           6           7           8           9          10
 ........................................................................................................................
   1   1.0000E-10  2.0000E-10   0.000       0.000       0.000       0.000       0.000       0.000       0.000       0.000    
   2   2.0000E-10  1.0000E-10  2.0000E-10   0.000       0.000      8.0000E-10  8.0000E-10  5.0000E-10   0.000       0.000    
   3    0.000      5.0000E-10  1.0000E-10  1.0000E-10  8.0000E-10  8.0000E-10  5.0000E-10  5.0000E-10   0.000       0.000    
   4   8.0000E-10  5.0000E-10  1.0000E-10  1.0000E-10  1.0000E-10  1.0000E-10  1.0000E-10  1.0000E-10  2.0000E-10   0.000    
   5   8.0000E-10  5.0000E-10  1.0000E-10  1.0000E-10  1.0000E-10  1.0000E-10  1.0000E-10  1.0000E-10  1.0000E-10  1.0000E-10
   6   8.0000E-10  5.0000E-10  5.0000E-10  2.0000E-10  2.0000E-10  1.0000E-10  1.0000E-10  1.0000E-10  1.0000E-10  5.0000E-10
   7   8.0000E-10  5.0000E-10  5.0000E-10  2.0000E-10  2.0000E-10  1.0000E-10  1.0000E-10  2.0000E-10  2.0000E-10   0.000    
   8    0.000      5.0000E-10  5.0000E-10  2.0000E-10  2.0000E-10  1.0000E-10  1.0000E-10  2.0000E-10  5.0000E-10   0.000    
   9    0.000      5.0000E-10  5.0000E-10  2.0000E-10  2.0000E-10  1.0000E-10  1.0000E-10  2.0000E-10  5.0000E-10   0.000    
  10    0.000      5.0000E-10  5.0000E-10  2.0000E-10  2.0000E-10  1.0000E-10  1.0000E-10  2.0000E-10  5.0000E-10  8.0000E-10
  11    0.000      1.0000E-10  1.0000E-10  1.0000E-10  1.0000E-10  1.0000E-10  1.0000E-10  2.0000E-10  5.0000E-10   0.000    
  12   1.0000E-10  1.0000E-10  1.0000E-10  1.0000E-10  1.0000E-10  1.0000E-10  1.0000E-10  1.0000E-10  2.0000E-10   0.000    
  13   1.0000E-10  1.0000E-10  2.0000E-10  2.0000E-10  2.0000E-10  2.0000E-10  2.0000E-10  1.0000E-10  1.0000E-10   0.000    
  14    0.000      2.0000E-10  5.0000E-10  5.0000E-10  5.0000E-10  5.0000E-10  5.0000E-10  2.0000E-10  1.0000E-10   0.000    
  15    0.000       0.000      8.0000E-10  8.0000E-10  8.0000E-10  8.0000E-10   0.000       0.000       0.000       0.000    

                  ET RATE =  5.000000E-08

 USING ET EXTINCTION DEPTH FROM PREVIOUS STRESS PERIOD. CURRENT PERIOD IS:      42

 USING EXTINCTION WATER CONTENT FROM PREVIOUS STRESS PERIOD. CURRENT PERIOD IS:      42

 USING AIR ENTRY PRESSURE FROM PREVIOUS STRESS PERIOD. CURRENT PERIOD IS:      42

 USING ROOT PRESSURE HEAD FROM PREVIOUS STRESS PERIOD. CURRENT PERIOD IS:      42

 USING ROOT ACTIVITY FROM PREVIOUS STRESS PERIOD. CURRENT PERIOD IS:      42

 PROCESSING AG STRESS PERIOD DATA

 READING AG STRESS PERIOD DATA

 READING IRRIGATION WELL

 NO IRRPOND OR REUSING IRRPOND DATA FROM LAST STRESS PERIOD

 END PROCESSING AG STRESS PERIOD DATA OPTIONS
 
 SOLVING FOR HEAD 
                                                   Max.-Head-Change                         Max.-Flux-Residual
  Residual-Control   Outer-Iter.   Inner-Iter.     Column Row Layer    Maximum-Head-Change  Column Row Layer    Maximum-Flux-Residual          L2-NORM 
          0                 1           2             4    7     1      -0.1270206785E-01       4    7    1        -0.6653403269E+00      0.1726923477E+01
          0                 2           2             4    7     1       0.1235564399E-02       4    7    1         0.6653401086E-01      0.1726916853E+00
          0                 3           1             4    7     1      -0.8413735816E-04       4    7    1        -0.4657382966E-02      0.1208839148E-01

    ------------------------------------------------
       NWT REQUIRED            3 OUTER ITERATIONS 
       AND A TOTAL OF          5 INNER ITERATIONS.
    ------------------------------------------------

 NO OUTPUT CONTROL FOR STRESS PERIOD   42   TIME STEP    1
 
 SOLVING FOR HEAD 
                                                   Max.-Head-Change                         Max.-Flux-Residual
  Residual-Control   Outer-Iter.   Inner-Iter.     Column Row Layer    Maximum-Head-Change  Column Row Layer    Maximum-Flux-Residual          L2-NORM 
          0                 1           2             5    8     1       0.1219678431E-01       5    8    1         0.6500772231E+00      0.1671003071E+01
          0                 2           2             4    7     1      -0.2420641502E-01       5    8    1        -0.1304971710E+01      0.3190205995E+01
          0                 3           2             4    7     1       0.1647905416E-02       5    8    1         0.9132152627E-01      0.2232511142E+00
          0                 4           1             4    7     1      -0.6557171606E-04       5    8    1        -0.3735061468E-02      0.9130990929E-02

    ------------------------------------------------
       NWT REQUIRED            4 OUTER ITERATIONS 
       AND A TOTAL OF          7 INNER ITERATIONS.
    ------------------------------------------------

 NO OUTPUT CONTROL FOR STRESS PERIOD   42   TIME STEP    2
 
 SOLVING FOR HEAD 
                                                   Max.-Head-Change                         Max.-Flux-Residual
  Residual-Control   Outer-Iter.   Inner-Iter.     Column Row Layer    Maximum-Head-Change  Column Row Layer    Maximum-Flux-Residual          L2-NORM 
          0                 1           2             5    8     1       0.1255034498E-01       5    8    1         0.6695092480E+00      0.1695404340E+01
          0                 2           2             4    7     1      -0.2431066594E-01       5    8    1        -0.1311926022E+01      0.3205802972E+01
          0                 3           2             4    7     1       0.1655004516E-02       5    8    1         0.9180831375E-01      0.2243428870E+00
          0                 4           1             4    7     1      -0.6585419579E-04       5    8    1        -0.3754971180E-02      0.9175643971E-02

    ------------------------------------------------
       NWT REQUIRED            4 OUTER ITERATIONS 
       AND A TOTAL OF          7 INNER ITERATIONS.
    ------------------------------------------------

 NO OUTPUT CONTROL FOR STRESS PERIOD   42   TIME STEP    3
 
 SOLVING FOR HEAD 
                                                   Max.-Head-Change                         Max.-Flux-Residual
  Residual-Control   Outer-Iter.   Inner-Iter.     Column Row Layer    Maximum-Head-Change  Column Row Layer    Maximum-Flux-Residual          L2-NORM 
          0                 1           2             5    8     1       0.1288752430E-01       5    8    1         0.6880269330E+00      0.1719901161E+01
          0                 2           2             4    7     1      -0.2432200525E-01       5    8    1        -0.1313777818E+01      0.3209037602E+01
          0                 3           2             4    7     1       0.1655776706E-02       5    8    1         0.9193793489E-01      0.2245693078E+00
          0                 4           1             4    7     1      -0.6588492162E-04       5    8    1        -0.3760272703E-02      0.9184904524E-02

    ------------------------------------------------
       NWT REQUIRED            4 OUTER ITERATIONS 
       AND A TOTAL OF          7 INNER ITERATIONS.
    ------------------------------------------------

 NO OUTPUT CONTROL FOR STRESS PERIOD   42   TIME STEP    4
 
 SOLVING FOR HEAD 
                                                   Max.-Head-Change                         Max.-Flux-Residual
  Residual-Control   Outer-Iter.   Inner-Iter.     Column Row Layer    Maximum-Head-Change  Column Row Layer    Maximum-Flux-Residual          L2-NORM 
          0                 1           2             5    8     1       0.1320694608E-01       5    8    1         0.7055557837E+00      0.1744215938E+01
          0                 2           2             4    7     1      -0.2433368779E-01       5    8    1        -0.1315530729E+01      0.3212163189E+01
          0                 3           2             4    7     1       0.1656572267E-02       5    8    1         0.9206063438E-01      0.2247880950E+00
          0                 4           1             4    7     1      -0.6591657791E-04       5    8    1        -0.3765291132E-02      0.9193852909E-02

    ------------------------------------------------
       NWT REQUIRED            4 OUTER ITERATIONS 
       AND A TOTAL OF          7 INNER ITERATIONS.
    ------------------------------------------------

 NO OUTPUT CONTROL FOR STRESS PERIOD   42   TIME STEP    5
 
 SOLVING FOR HEAD 
                                                   Max.-Head-Change                         Max.-Flux-Residual
  Residual-Control   Outer-Iter.   Inner-Iter.     Column Row Layer    Maximum-Head-Change  Column Row Layer    Maximum-Flux-Residual          L2-NORM 
          0                 1           2             5    8     1       0.1350953396E-01       5    8    1         0.7221482629E+00      0.1768263668E+01
          0                 2           2             4    7     1      -0.2434568404E-01       5    8    1        -0.1317190002E+01      0.3215184002E+01
          0                 3           2             4    7     1       0.1657389188E-02       5    8    1         0.9217677952E-01      0.2249995493E+00
          0                 4           1             4    7     1      -0.6594908396E-04       5    8    1        -0.3770041501E-02      0.9202522431E-02

    ------------------------------------------------
       NWT REQUIRED            4 OUTER ITERATIONS 
       AND A TOTAL OF          7 INNER ITERATIONS.
    ------------------------------------------------

 NO OUTPUT CONTROL FOR STRESS PERIOD   42   TIME STEP    6
 
 SOLVING FOR HEAD 
                                                   Max.-Head-Change                         Max.-Flux-Residual
  Residual-Control   Outer-Iter.   Inner-Iter.     Column Row Layer    Maximum-Head-Change  Column Row Layer    Maximum-Flux-Residual          L2-NORM 
          0                 1           2             5    8     1       0.1379657103E-01       5    8    1         0.7378757872E+00      0.1791994224E+01
          0                 2           2             4    7     1      -0.2435795430E-01       5    8    1        -0.1318762778E+01      0.3218105713E+01
          0                 3           2             4    7     1       0.1658224766E-02       5    8    1         0.9228687013E-01      0.2252040723E+00
          0                 4           1             4    7     1      -0.6598233212E-04       5    8    1        -0.3774544236E-02      0.9210949307E-02

    ------------------------------------------------
       NWT REQUIRED            4 OUTER ITERATIONS 
       AND A TOTAL OF          7 INNER ITERATIONS.
    ------------------------------------------------

 NO OUTPUT CONTROL FOR STRESS PERIOD   42   TIME STEP    7
 
 SOLVING FOR HEAD 
                                                   Max.-Head-Change                         Max.-Flux-Residual
  Residual-Control   Outer-Iter.   Inner-Iter.     Column Row Layer    Maximum-Head-Change  Column Row Layer    Maximum-Flux-Residual          L2-NORM 
          0                 1           2             5    8     1       0.1406881225E-01       5    8    1         0.7527813542E+00      0.1815345039E+01
          0                 2           2             4    7     1      -0.2437046092E-01       5    8    1        -0.1320253358E+01      0.3220931204E+01
          0                 3           2             4    7     1       0.1659076437E-02       5    8    1         0.9239120721E-01      0.2254018474E+00
          0                 4           1             4    7     1      -0.6601622096E-04       5    8    1        -0.3778811641E-02      0.9218955571E-02

    ------------------------------------------------
       NWT REQUIRED            4 OUTER ITERATIONS 
       AND A TOTAL OF          7 INNER ITERATIONS.
    ------------------------------------------------

 NO OUTPUT CONTROL FOR STRESS PERIOD   42   TIME STEP    8
 
 SOLVING FOR HEAD 
                                                   Max.-Head-Change                         Max.-Flux-Residual
  Residual-Control   Outer-Iter.   Inner-Iter.     Column Row Layer    Maximum-Head-Change  Column Row Layer    Maximum-Flux-Residual          L2-NORM 
          0                 1           2             5    8     1       0.1432752219E-01       5    8    1         0.7669354755E+00      0.1838287638E+01
          0                 2           2             4    7     1      -0.2438315588E-01       5    8    1        -0.1321668791E+01      0.3223665104E+01
          0                 3           2             4    7     1       0.1659940932E-02       5    8    1         0.9249028430E-01      0.2255932179E+00
          0                 4           1             4    7     1      -0.6605061971E-04       5    8    1        -0.3782863912E-02      0.9226783664E-02

    ------------------------------------------------
       NWT REQUIRED            4 OUTER ITERATIONS 
       AND A TOTAL OF          7 INNER ITERATIONS.
    ------------------------------------------------

 NO OUTPUT CONTROL FOR STRESS PERIOD   42   TIME STEP    9
 
 SOLVING FOR HEAD 
                                                   Max.-Head-Change                         Max.-Flux-Residual
  Residual-Control   Outer-Iter.   Inner-Iter.     Column Row Layer    Maximum-Head-Change  Column Row Layer    Maximum-Flux-Residual          L2-NORM 
          0                 1           2             5    8     1       0.1457344844E-01       5    8    1         0.7803801907E+00      0.1860795466E+01
          0                 2           2             4    7     1      -0.2439603337E-01       5    8    1        -0.1323013283E+01      0.3226311764E+01
          0                 3           2             4    7     1       0.1660817855E-02       5    8    1         0.9258439572E-01      0.2257784813E+00
          0                 4           1             4    7     1      -0.6608551350E-04       5    8    1        -0.3786713094E-02      0.9234359161E-02

    ------------------------------------------------
       NWT REQUIRED            4 OUTER ITERATIONS 
       AND A TOTAL OF          7 INNER ITERATIONS.
    ------------------------------------------------

 NO OUTPUT CONTROL FOR STRESS PERIOD   42   TIME STEP   10
 
 SOLVING FOR HEAD 
                                                   Max.-Head-Change                         Max.-Flux-Residual
  Residual-Control   Outer-Iter.   Inner-Iter.     Column Row Layer    Maximum-Head-Change  Column Row Layer    Maximum-Flux-Residual          L2-NORM 
          0                 1           2             5    8     1       0.1480742458E-01       5    8    1         0.7931621013E+00      0.1882852649E+01
          0                 2           2             4    7     1      -0.2440904963E-01       5    8    1        -0.1324291494E+01      0.3228874969E+01
          0                 3           2             4    7     1       0.1661704226E-02       5    8    1         0.9267386759E-01      0.2259579029E+00
          0                 4           1             4    7     1      -0.6612078296E-04       5    8    1        -0.3790372510E-02      0.9241698201E-02

    ------------------------------------------------
       NWT REQUIRED            4 OUTER ITERATIONS 
       AND A TOTAL OF          7 INNER ITERATIONS.
    ------------------------------------------------

 NO OUTPUT CONTROL FOR STRESS PERIOD   42   TIME STEP   11
 
 SOLVING FOR HEAD 
                                                   Max.-Head-Change                         Max.-Flux-Residual
  Residual-Control   Outer-Iter.   Inner-Iter.     Column Row Layer    Maximum-Head-Change  Column Row Layer    Maximum-Flux-Residual          L2-NORM 
          0                 1           2             5    8     1       0.1503008095E-01       5    8    1         0.8053165862E+00      0.1904432650E+01
          0                 2           2             4    7     1      -0.2442216340E-01       5    8    1        -0.1325506961E+01      0.3231356858E+01
          0                 3           2             4    7     1       0.1662597235E-02       5    8    1         0.9275894760E-01      0.2261316326E+00
          0                 4           1             4    7     1      -0.6615631663E-04       5    8    1        -0.3793852292E-02      0.9248803977E-02

    ------------------------------------------------
       NWT REQUIRED            4 OUTER ITERATIONS 
       AND A TOTAL OF          7 INNER ITERATIONS.
    ------------------------------------------------

 NO OUTPUT CONTROL FOR STRESS PERIOD   42   TIME STEP   12
 
 SOLVING FOR HEAD 
                                                   Max.-Head-Change                         Max.-Flux-Residual
  Residual-Control   Outer-Iter.   Inner-Iter.     Column Row Layer    Maximum-Head-Change  Column Row Layer    Maximum-Flux-Residual          L2-NORM 
          0                 1           2             5    8     1       0.1524213557E-01       5    8    1         0.8168841675E+00      0.1925538056E+01
          0                 2           2             4    7     1      -0.2443537533E-01       5    8    1        -0.1326663737E+01      0.3233761875E+01
          0                 3           2             4    7     1       0.1663477037E-02       5    8    1         0.9283991939E-01      0.2262456480E+00
          0                 4           1             4    7     1      -0.6619132452E-04       5    8    1        -0.3797164068E-02      0.9253471931E-02

    ------------------------------------------------
       NWT REQUIRED            4 OUTER ITERATIONS 
       AND A TOTAL OF          7 INNER ITERATIONS.
    ------------------------------------------------

 NO OUTPUT CONTROL FOR STRESS PERIOD   42   TIME STEP   13
 
 SOLVING FOR HEAD 
                                                   Max.-Head-Change                         Max.-Flux-Residual
  Residual-Control   Outer-Iter.   Inner-Iter.     Column Row Layer    Maximum-Head-Change  Column Row Layer    Maximum-Flux-Residual          L2-NORM 
          0                 1           2             5    8     1       0.1544431175E-01       5    8    1         0.8279009170E+00      0.1946128516E+01
          0                 2           2             4    7     1      -0.2444870234E-01       5    8    1        -0.1327765429E+01      0.3236206243E+01
          0                 3           2             4    7     1       0.1664294884E-02       5    8    1         0.9291703568E-01      0.2262670331E+00
          0                 4           1             4    7     1      -0.6622386752E-04       5    8    1        -0.3800318160E-02      0.9254341042E-02

    ------------------------------------------------
       NWT REQUIRED            4 OUTER ITERATIONS 
       AND A TOTAL OF          7 INNER ITERATIONS.
    ------------------------------------------------

 NO OUTPUT CONTROL FOR STRESS PERIOD   42   TIME STEP   14
 
 SOLVING FOR HEAD 
                                                   Max.-Head-Change                         Max.-Flux-Residual
  Residual-Control   Outer-Iter.   Inner-Iter.     Column Row Layer    Maximum-Head-Change  Column Row Layer    Maximum-Flux-Residual          L2-NORM 
          0                 1           2             5    8     1       0.1563706745E-01       5    8    1         0.8384057001E+00      0.1966142917E+01
          0                 2           2             4    7     1      -0.2446210692E-01       5    8    1        -0.1328815923E+01      0.3238334331E+01
          0                 3           2             4    7     1       0.1665317349E-02       5    8    1         0.9299056841E-01      0.2266202026E+00
          0                 4           1             4    7     1      -0.6626455200E-04       5    8    1        -0.3803325640E-02      0.9268785604E-02

    ------------------------------------------------
       NWT REQUIRED            4 OUTER ITERATIONS 
       AND A TOTAL OF          7 INNER ITERATIONS.
    ------------------------------------------------

 NO OUTPUT CONTROL FOR STRESS PERIOD   42   TIME STEP   15
 
 SOLVING FOR HEAD 
                                                   Max.-Head-Change                         Max.-Flux-Residual
  Residual-Control   Outer-Iter.   Inner-Iter.     Column Row Layer    Maximum-Head-Change  Column Row Layer    Maximum-Flux-Residual          L2-NORM 
          0                 1           2             5    8     1       0.1582087465E-01       5    8    1         0.8484151631E+00      0.1985684247E+01
          0                 2           2             4    7     1      -0.2447540946E-01       5    8    1        -0.1329816885E+01      0.3240512252E+01
          0                 3           2             4    7     1       0.1666223208E-02       5    8    1         0.9306063365E-01      0.2267726551E+00
          0                 4           1             4    7     1      -0.6630059696E-04       5    8    1        -0.3806191305E-02      0.9275021150E-02

    ------------------------------------------------
       NWT REQUIRED            4 OUTER ITERATIONS 
       AND A TOTAL OF          7 INNER ITERATIONS.
    ------------------------------------------------

 NO OUTPUT CONTROL FOR STRESS PERIOD   42   TIME STEP   16
 
 SOLVING FOR HEAD 
                                                   Max.-Head-Change                         Max.-Flux-Residual
  Residual-Control   Outer-Iter.   Inner-Iter.     Column Row Layer    Maximum-Head-Change  Column Row Layer    Maximum-Flux-Residual          L2-NORM 
          0                 1           2             5    8     1       0.1599642692E-01       5    8    1         0.8579685123E+00      0.2004748043E+01
          0                 2           2             4    7     1      -0.2448869162E-01       5    8    1        -0.1330772234E+01      0.3242624757E+01
          0                 3           2             4    7     1       0.1667127679E-02       5    8    1         0.9312750615E-01      0.2269177782E+00
          0                 4           1             4    7     1      -0.6633658642E-04       5    8    1        -0.3808926424E-02      0.9280905074E-02

    ------------------------------------------------
       NWT REQUIRED            4 OUTER ITERATIONS 
       AND A TOTAL OF          7 INNER ITERATIONS.
    ------------------------------------------------

 NO OUTPUT CONTROL FOR STRESS PERIOD   42   TIME STEP   17
 
 SOLVING FOR HEAD 
                                                   Max.-Head-Change                         Max.-Flux-Residual
  Residual-Control   Outer-Iter.   Inner-Iter.     Column Row Layer    Maximum-Head-Change  Column Row Layer    Maximum-Flux-Residual          L2-NORM 
          0                 1           2             5    8     1       0.1616423374E-01       5    8    1         0.8670938624E+00      0.2023349654E+01
          0                 2           2             4    7     1      -0.2450196330E-01       5    8    1        -0.1331684783E+01      0.3244675195E+01
          0                 3           2             4    7     1       0.1668031434E-02       5    8    1         0.9319138270E-01      0.2270585398E+00
          0                 4           1             4    7     1      -0.6637254768E-04       5    8    1        -0.3811538979E-02      0.9286601516E-02

    ------------------------------------------------
       NWT REQUIRED            4 OUTER ITERATIONS 
       AND A TOTAL OF          7 INNER ITERATIONS.
    ------------------------------------------------

 NO OUTPUT CONTROL FOR STRESS PERIOD   42   TIME STEP   18
 
 SOLVING FOR HEAD 
                                                   Max.-Head-Change                         Max.-Flux-Residual
  Residual-Control   Outer-Iter.   Inner-Iter.     Column Row Layer    Maximum-Head-Change  Column Row Layer    Maximum-Flux-Residual          L2-NORM 
          0                 1           2             5    8     1       0.1632462474E-01       5    8    1         0.8758097890E+00      0.2041497165E+01
          0                 2           2             4    7     1      -0.2451519586E-01       5    8    1        -0.1332556389E+01      0.3246666113E+01
          0                 3           2             4    7     1       0.1668932525E-02       5    8    1         0.9325239337E-01      0.2271950947E+00
          0                 4           1             4    7     1      -0.6640840313E-04       5    8    1        -0.3814034331E-02      0.9292090134E-02

    ------------------------------------------------
       NWT REQUIRED            4 OUTER ITERATIONS 
       AND A TOTAL OF          7 INNER ITERATIONS.
    ------------------------------------------------

 NO OUTPUT CONTROL FOR STRESS PERIOD   42   TIME STEP   19
 
 SOLVING FOR HEAD 
                                                   Max.-Head-Change                         Max.-Flux-Residual
  Residual-Control   Outer-Iter.   Inner-Iter.     Column Row Layer    Maximum-Head-Change  Column Row Layer    Maximum-Flux-Residual          L2-NORM 
          0                 1           2             5    8     1       0.1647818954E-01       5    8    1         0.8841490632E+00      0.2059191248E+01
          0                 2           2             4    7     1      -0.2452836218E-01       5    8    1        -0.1333390329E+01      0.3248599080E+01
          0                 3           2             4    7     1       0.1669829105E-02       5    8    1         0.9331076751E-01      0.2273275762E+00
          0                 4           1             4    7     1      -0.6644407899E-04       5    8    1        -0.3816421847E-02      0.9297400804E-02

    ------------------------------------------------
       NWT REQUIRED            4 OUTER ITERATIONS 
       AND A TOTAL OF          7 INNER ITERATIONS.
    ------------------------------------------------

 NO OUTPUT CONTROL FOR STRESS PERIOD   42   TIME STEP   20
 
 SOLVING FOR HEAD 
                                                   Max.-Head-Change                         Max.-Flux-Residual
  Residual-Control   Outer-Iter.   Inner-Iter.     Column Row Layer    Maximum-Head-Change  Column Row Layer    Maximum-Flux-Residual          L2-NORM 
          0                 1           2             5    8     1       0.1662505730E-01       5    8    1         0.8921187343E+00      0.2076445127E+01
          0                 2           2             4    7     1      -0.2454147657E-01       5    8    1        -0.1334187308E+01      0.3250476935E+01
          0                 3           2             4    7     1       0.1670722148E-02       5    8    1         0.9336655450E-01      0.2274589849E+00
          0                 4           1             4    7     1      -0.6647961335E-04       5    8    1        -0.3818703553E-02      0.9302737125E-02

    ------------------------------------------------
       NWT REQUIRED            4 OUTER ITERATIONS 
       AND A TOTAL OF          7 INNER ITERATIONS.
    ------------------------------------------------

 NO OUTPUT CONTROL FOR STRESS PERIOD   42   TIME STEP   21
 
 SOLVING FOR HEAD 
                                                   Max.-Head-Change                         Max.-Flux-Residual
  Residual-Control   Outer-Iter.   Inner-Iter.     Column Row Layer    Maximum-Head-Change  Column Row Layer    Maximum-Flux-Residual          L2-NORM 
          0                 1           2             5    8     1       0.1676590380E-01       5    8    1         0.8997568609E+00      0.2093275666E+01
          0                 2           2             4    7     1      -0.2455451354E-01       5    8    1        -0.1334951132E+01      0.3252301994E+01
          0                 3           2             4    7     1       0.1671609918E-02       5    8    1         0.9342002074E-01      0.2275867129E+00
          0                 4           1             4    7     1      -0.6651493888E-04       5    8    1        -0.3820890322E-02      0.9307926929E-02

    ------------------------------------------------
       NWT REQUIRED            4 OUTER ITERATIONS 
       AND A TOTAL OF          7 INNER ITERATIONS.
    ------------------------------------------------

 NO OUTPUT CONTROL FOR STRESS PERIOD   42   TIME STEP   22
 
 SOLVING FOR HEAD 
                                                   Max.-Head-Change                         Max.-Flux-Residual
  Residual-Control   Outer-Iter.   Inner-Iter.     Column Row Layer    Maximum-Head-Change  Column Row Layer    Maximum-Flux-Residual          L2-NORM 
          0                 1           2             5    8     1       0.1690108343E-01       5    8    1         0.9070827994E+00      0.2109687108E+01
          0                 2           2             4    7     1      -0.2456746253E-01       5    8    1        -0.1335683737E+01      0.3254076070E+01
          0                 3           2             4    7     1       0.1672491696E-02       5    8    1         0.9347130169E-01      0.2277108857E+00
          0                 4           1             4    7     1      -0.6655002574E-04       5    8    1        -0.3822987711E-02      0.9312974880E-02

    ------------------------------------------------
       NWT REQUIRED            4 OUTER ITERATIONS 
       AND A TOTAL OF          7 INNER ITERATIONS.
    ------------------------------------------------

 NO OUTPUT CONTROL FOR STRESS PERIOD   42   TIME STEP   23
 
 SOLVING FOR HEAD 
                                                   Max.-Head-Change                         Max.-Flux-Residual
  Residual-Control   Outer-Iter.   Inner-Iter.     Column Row Layer    Maximum-Head-Change  Column Row Layer    Maximum-Flux-Residual          L2-NORM 
          0                 1           2             5    8     1       0.1703064000E-01       5    8    1         0.9140992432E+00      0.2125683307E+01
          0                 2           2             4    7     1      -0.2458031405E-01       5    8    1        -0.1336385391E+01      0.3255800190E+01
          0                 3           2             4    7     1       0.1673366836E-02       5    8    1         0.9352041618E-01      0.2278315729E+00
          0                 4           1             4    7     1      -0.6658484861E-04       5    8    1        -0.3824996512E-02      0.9317883676E-02

    ------------------------------------------------
       NWT REQUIRED            4 OUTER ITERATIONS 
       AND A TOTAL OF          7 INNER ITERATIONS.
    ------------------------------------------------

 NO OUTPUT CONTROL FOR STRESS PERIOD   42   TIME STEP   24
 
 SOLVING FOR HEAD 
                                                   Max.-Head-Change                         Max.-Flux-Residual
  Residual-Control   Outer-Iter.   Inner-Iter.     Column Row Layer    Maximum-Head-Change  Column Row Layer    Maximum-Flux-Residual          L2-NORM 
          0                 1           2             5    8     1       0.1715504251E-01       5    8    1         0.9208319849E+00      0.2141281152E+01
          0                 2           2             4    7     1      -0.2459304639E-01       5    8    1        -0.1337058675E+01      0.3257476977E+01
          0                 3           2             4    7     1       0.1674233860E-02       5    8    1         0.9356754486E-01      0.2279489562E+00
          0                 4           1             4    7     1      -0.6661934821E-04       5    8    1        -0.3826924086E-02      0.9322660027E-02

    ------------------------------------------------
       NWT REQUIRED            4 OUTER ITERATIONS 
       AND A TOTAL OF          7 INNER ITERATIONS.
    ------------------------------------------------

 NO OUTPUT CONTROL FOR STRESS PERIOD   42   TIME STEP   25
 
 SOLVING FOR HEAD 
                                                   Max.-Head-Change                         Max.-Flux-Residual
  Residual-Control   Outer-Iter.   Inner-Iter.     Column Row Layer    Maximum-Head-Change  Column Row Layer    Maximum-Flux-Residual          L2-NORM 
          0                 1           2             5    8     1       0.1727457965E-01       5    8    1         0.9272975006E+00      0.2156495277E+01
          0                 2           2             4    7     1      -0.2460567851E-01       5    8    1        -0.1337705236E+01      0.3259108293E+01
          0                 3           2             4    7     1       0.1675094059E-02       5    8    1         0.9360523040E-01      0.2280603980E+00
          0                 4           1             4    7     1      -0.6665357622E-04       5    8    1        -0.3827731075E-02      0.9327127416E-02

    ------------------------------------------------
       NWT REQUIRED            4 OUTER ITERATIONS 
       AND A TOTAL OF          7 INNER ITERATIONS.
    ------------------------------------------------

 NO OUTPUT CONTROL FOR STRESS PERIOD   42   TIME STEP   26
 
 SOLVING FOR HEAD 
                                                   Max.-Head-Change                         Max.-Flux-Residual
  Residual-Control   Outer-Iter.   Inner-Iter.     Column Row Layer    Maximum-Head-Change  Column Row Layer    Maximum-Flux-Residual          L2-NORM 
          0                 1           2             5    8     1       0.1738938525E-01       5    8    1         0.9335028555E+00      0.2171330715E+01
          0                 2           2             4    7     1      -0.2461818992E-01       5    8    1        -0.1338325781E+01      0.3260695445E+01
          0                 3           2             4    7     1       0.1675946038E-02       5    8    1         0.9364022768E-01      0.2281662412E+00
          0                 4           1             4    7     1      -0.6668747716E-04       5    8    1        -0.3828343502E-02      0.9331309125E-02

    ------------------------------------------------
       NWT REQUIRED            4 OUTER ITERATIONS 
       AND A TOTAL OF          7 INNER ITERATIONS.
    ------------------------------------------------

 NO OUTPUT CONTROL FOR STRESS PERIOD   42   TIME STEP   27
 
 SOLVING FOR HEAD 
                                                   Max.-Head-Change                         Max.-Flux-Residual
  Residual-Control   Outer-Iter.   Inner-Iter.     Column Row Layer    Maximum-Head-Change  Column Row Layer    Maximum-Flux-Residual          L2-NORM 
          0                 1           2             5    8     1       0.1750000738E-01       5    8    1         0.9394785640E+00      0.2185803285E+01
          0                 2           2             4    7     1      -0.2463056126E-01       5    8    1        -0.1338923360E+01      0.3262240607E+01
          0                 3           2             4    7     1       0.1676788478E-02       5    8    1         0.9368226576E-01      0.2282744040E+00
          0                 4           1             4    7     1      -0.6672099863E-04       5    8    1        -0.3830083103E-02      0.9335695758E-02

    ------------------------------------------------
       NWT REQUIRED            4 OUTER ITERATIONS 
       AND A TOTAL OF          7 INNER ITERATIONS.
    ------------------------------------------------

 NO OUTPUT CONTROL FOR STRESS PERIOD   42   TIME STEP   28
 
 SOLVING FOR HEAD 
                                                   Max.-Head-Change                         Max.-Flux-Residual
  Residual-Control   Outer-Iter.   Inner-Iter.     Column Row Layer    Maximum-Head-Change  Column Row Layer    Maximum-Flux-Residual          L2-NORM 
          0                 1           2             5    8     1       0.1760639427E-01       5    8    1         0.9452217615E+00      0.2199920980E+01
          0                 2           2             4    7     1      -0.2464281399E-01       5    8    1        -0.1339497688E+01      0.3263744922E+01
          0                 3           2             4    7     1       0.1677622841E-02       5    8    1         0.9372266590E-01      0.2283797173E+00
          0                 4           1             4    7     1      -0.6675419901E-04       5    8    1        -0.3831754709E-02      0.9339969728E-02

    ------------------------------------------------
       NWT REQUIRED            4 OUTER ITERATIONS 
       AND A TOTAL OF          7 INNER ITERATIONS.
    ------------------------------------------------

 NO OUTPUT CONTROL FOR STRESS PERIOD   42   TIME STEP   29
 
 SOLVING FOR HEAD 
                                                   Max.-Head-Change                         Max.-Flux-Residual
  Residual-Control   Outer-Iter.   Inner-Iter.     Column Row Layer    Maximum-Head-Change  Column Row Layer    Maximum-Flux-Residual          L2-NORM 
          0                 1           2             5    8     1       0.1770891316E-01       5    8    1         0.9507532116E+00      0.2213683457E+01
          0                 2           2             4    7     1      -0.2465491608E-01       5    8    1        -0.1340050840E+01      0.3265208756E+01
          0                 3           2             4    7     1       0.1678446945E-02       5    8    1         0.9376157469E-01      0.2284822058E+00
          0                 4           1             4    7     1      -0.6678699081E-04       5    8    1        -0.3833364407E-02      0.9344130194E-02

    ------------------------------------------------
       NWT REQUIRED            4 OUTER ITERATIONS 
       AND A TOTAL OF          7 INNER ITERATIONS.
    ------------------------------------------------

 NO OUTPUT CONTROL FOR STRESS PERIOD   42   TIME STEP   30



 STREAM LISTING     PERIOD     42   STEP       30

 LAYER ROW COL. STREAM  RCH.  FLOW INTO     FLOW TO   FLOW OUT OF   OVRLND.     DIRECT     STREAM       STREAM     STREAM     STREAM   STREAMBED  STREAMBED
                SEG.NO.  NO.  STRM. RCH.    AQUIFER    STRM. RCH.    RUNOFF     PRECIP       ET          HEAD       DEPTH      WIDTH   CONDCTNC.   GRADIENT

   1    1    1     1     1    1.9000E+01  2.1427E-01   1.8786E+01  0.000E+00  0.000E+00  0.000E+00  1.09413E+03  1.082E+00  1.166E+01  5.249E-02  1.361E+00
   1    2    2     1     2    1.8786E+01  3.3054E-01   1.8455E+01  0.000E+00  0.000E+00  0.000E+00  1.08914E+03  1.077E+00  1.158E+01  8.107E-02  1.359E+00
   1    3    3     1     3    1.8455E+01  2.8064E-01   1.8175E+01  0.000E+00  0.000E+00  0.000E+00  1.08349E+03  1.072E+00  1.149E+01  6.892E-02  1.357E+00
   1    3    4     1     4    1.8175E+01  2.5740E-01   1.7917E+01  0.000E+00  0.000E+00  0.000E+00  1.07848E+03  1.068E+00  1.140E+01  6.328E-02  1.356E+00
   1    4    5     2     1    1.5917E+01  3.0542E-01   1.5612E+01  0.000E+00  0.000E+00  0.000E+00  1.07285E+03  9.157E-01  1.200E+01  7.800E-02  1.305E+00
   1    5    6     2     2    1.5612E+01  2.3438E-01   1.5377E+01  0.000E+00  0.000E+00  0.000E+00  1.06742E+03  9.063E-01  1.200E+01  6.000E-02  1.302E+00
   1    6    6     2     3    1.5377E+01  2.3388E-01   1.5143E+01  0.000E+00  0.000E+00  0.000E+00  1.06269E+03  8.980E-01  1.200E+01  6.000E-02  1.299E+00
   1    7    6     2     4    1.5143E+01  2.3338E-01   1.4910E+01  0.000E+00  0.000E+00  0.000E+00  1.05797E+03  8.897E-01  1.200E+01  6.000E-02  1.297E+00
   1    8    6     2     5    1.4910E+01  2.3289E-01   1.4677E+01  0.000E+00  0.000E+00  0.000E+00  1.05324E+03  8.814E-01  1.200E+01  6.000E-02  1.294E+00
   1    3    5     3     1    2.0000E+00  2.8252E-01   1.7175E+00  0.000E+00  0.000E+00  0.000E+00  1.07555E+03  1.909E+00  9.636E+00  7.227E-02  1.955E+00
   1    3    6     3     2    1.7175E+00  2.4905E-01   1.4684E+00  0.000E+00  0.000E+00  0.000E+00  1.07264E+03  1.727E+00  8.909E+00  6.682E-02  1.864E+00
   1    3    7     3     3    1.4684E+00  1.9718E-01   1.2712E+00  0.000E+00  0.000E+00  0.000E+00  1.06987E+03  1.555E+00  8.218E+00  5.547E-02  1.777E+00
   1    4    8     3     4    1.2712E+00  2.2567E-01   1.0456E+00  0.000E+00  0.000E+00  0.000E+00  1.06682E+03  1.364E+00  7.455E+00  6.709E-02  1.682E+00
   1    5    8     3     5    1.0456E+00  1.5790E-01   8.8768E-01  0.000E+00  0.000E+00  0.000E+00  1.06362E+03  1.164E+00  6.655E+00  4.991E-02  1.582E+00
   1    6    8     3     6    8.8768E-01  5.5980E-02   8.3170E-01  0.000E+00  0.000E+00  0.000E+00  1.06158E+03  1.036E+00  6.145E+00  1.844E-02  1.518E+00
   1    5   10     4     1    1.0000E+01  9.0919E-02   9.9091E+00  0.000E+00  0.000E+00  0.000E+00  1.07836E+03  6.368E-01  1.000E+01  2.500E-02  1.212E+00
   1    5    9     4     2    9.9091E+00  1.8158E-01   9.7275E+00  0.000E+00  0.000E+00  0.000E+00  1.07154E+03  6.315E-01  1.000E+01  5.000E-02  1.211E+00
   1    6    8     4     3    9.7275E+00  1.2689E-01   9.6006E+00  0.000E+00  0.000E+00  0.000E+00  1.06381E+03  6.256E-01  1.000E+01  3.500E-02  1.209E+00
   1    6    8     5     1    1.0432E+01  2.2686E-01   1.0205E+01  0.000E+00  0.000E+00  0.000E+00  1.05868E+03  6.790E-01  1.542E+01  6.166E-02  1.226E+00
   1    7    7     5     2    1.0205E+01  2.7894E-01   9.9265E+00  0.000E+00  0.000E+00  0.000E+00  1.05417E+03  6.732E-01  1.519E+01  7.594E-02  1.224E+00
   1    8    7     5     3    9.9265E+00  1.9221E-01   9.7343E+00  0.000E+00  0.000E+00  0.000E+00  1.04992E+03  6.676E-01  1.497E+01  5.241E-02  1.223E+00
   1    8    6     5     4    9.7343E+00  1.3577E-01   9.5985E+00  0.000E+00  0.000E+00  0.000E+00  1.04691E+03  6.637E-01  1.482E+01  3.706E-02  1.221E+00
   1    9    6     6     1    2.4276E+01  2.5176E-01   2.4024E+01  0.000E+00  0.000E+00  0.000E+00  1.04392E+03  1.196E+00  1.200E+01  6.000E-02  1.399E+00
   1   10    7     6     2    2.4024E+01  2.5131E-01   2.3773E+01  0.000E+00  0.000E+00  0.000E+00  1.03937E+03  1.188E+00  1.200E+01  6.000E-02  1.396E+00
   1   11    7     6     3    2.3773E+01  2.5086E-01   2.3522E+01  0.000E+00  0.000E+00  0.000E+00  1.03482E+03  1.181E+00  1.200E+01  6.000E-02  1.394E+00
   1   12    7     6     4    2.3522E+01  2.5041E-01   2.3271E+01  0.000E+00  0.000E+00  0.000E+00  1.03026E+03  1.173E+00  1.200E+01  6.000E-02  1.391E+00
   1   13    7     6     5    2.3271E+01  1.0821E-02   2.3261E+01  0.000E+00  0.000E+00  0.000E+00  1.02708E+03  1.170E+00  1.200E+01  2.400E-02  1.503E-01
   1   14    9     7     1    1.5000E+02  1.3694E+00   1.4863E+02  0.000E+00  0.000E+00  0.000E+00  1.03987E+03  2.288E+00  5.529E+01  5.593E-01  8.161E-01
   1   13    8     7     2    1.4863E+02  1.9672E+00   1.4666E+02  0.000E+00  0.000E+00  0.000E+00  1.03478E+03  2.279E+00  5.525E+01  6.147E-01  1.067E+00
   1   13    7     7     3    1.4666E+02  1.7089E+00   1.4495E+02  0.000E+00  0.000E+00  0.000E+00  1.02969E+03  2.269E+00  5.521E+01  5.584E-01  1.020E+00
   1   13    6     8     1    1.6822E+02  1.1436E+00   1.6707E+02  0.000E+00  0.000E+00  0.000E+00  1.02481E+03  2.937E+00  4.258E+01  4.339E-01  8.785E-01
   1   13    5     8     2    1.6707E+02  3.8001E-01   1.6669E+02  0.000E+00  0.000E+00  0.000E+00  1.01856E+03  2.932E+00  4.251E+01  4.332E-01  2.924E-01
   1   13    4     8     3    1.6669E+02 -1.7546E+00   1.6845E+02  0.000E+00  0.000E+00  0.000E+00  1.01231E+03  2.936E+00  4.258E+01  4.339E+00 -1.348E-01
   1   13    3     8     4    1.6845E+02 -3.3126E+00   1.7176E+02  0.000E+00  0.000E+00  0.000E+00  1.00608E+03  2.953E+00  4.282E+01  4.363E+00 -2.531E-01
   1   13    2     8     5    1.7176E+02 -2.4937E+00   1.7425E+02  0.000E+00  0.000E+00  0.000E+00  9.99847E+02  2.972E+00  4.309E+01  4.391E+00 -1.893E-01
   1   13    1     8     6    1.7425E+02 -1.9608E+00   1.7621E+02  0.000E+00  0.000E+00  0.000E+00  9.94861E+02  2.986E+00  4.330E+01  2.647E+00 -2.469E-01





UNSATURATED ZONE PACKAGE VOLUMETRIC BUDGET FOR  TIME STEP    30 STRESS PERIOD   42
  ------------------------------------------------------------------------------



     CUMULATIVE VOLUMES      L**3       RATES FOR THIS TIME STEP      L**3/T
     ------------------                 ------------------------

           IN:                                      IN:
           ---                                      ---
        INFILTRATION =  1426032703.6291          INFILTRATION =           8.3175

          OUT:                                     OUT:
          ----                                     ----
              UZF ET =  1312162193.2757                UZF ET =           8.3175
        UZF RECHARGE =   113794615.5447          UZF RECHARGE =       0.0000E+00

            IN - OUT =       75894.8087              IN - OUT =       0.0000E+00

          STORAGE:                                 STORAGE:
          --------                                 --------
      STORAGE CHANGE =       75896.6146        STORAGE CHANGE =      -2.0077E-13

 PERCENT DISCREPANCY IS DIFFERENCE BETWEEN IN-OUT MINUS CHANGE IN STORAGE
 DIVIDED BY THE AVERAGE OF IN AND OUT TIMES 100

 PERCENT DISCREPANCY =          -0.00     PERCENT DISCREPANCY =           0.00






1
  VOLUMETRIC BUDGET FOR AGRICULTURAL FIELDS AT  END OF TIME STEP   30, STRESS PERIOD  42
  ------------------------------------------------------------------------------

     CUMULATIVE VOLUMES      L**3       RATES FOR THIS TIME STEP      L**3/T
     ------------------                 ------------------------

           IN:                                      IN:
           ---                                      ---
               AG WELLS  =  1334573312.0000                 AG WELLS  =           7.4700
      DIVERSION SEGMENTS =           0.0000        DIVERSION SEGMENTS =           0.0000
       IRRIGATION PONDS  =           0.0000         IRRIGATION PONDS  =           0.0000
           GW IRRIGATION =           0.0000             GW IRRIGATION =           0.0000
           SW IRRIGATION =           0.0000             SW IRRIGATION =           0.0000
        SYSTEM LOSSES GW =           0.0000          SYSTEM LOSSES GW =           0.0000
        SYSTEM LOSSES SW =           0.0000          SYSTEM LOSSES SW =           0.0000

                TOTAL IN =  1334573312.0000                  TOTAL IN =           7.4700

          OUT:                                     OUT:
          ----                                     ----
               AG WELLS  =           0.0000                 AG WELLS  =           0.0000
      DIVERSION SEGMENTS =           0.0000        DIVERSION SEGMENTS =           0.0000
       IRRIGATION PONDS  =           0.0000         IRRIGATION PONDS  =           0.0000
           GW IRRIGATION =  1334573312.0000             GW IRRIGATION =           7.4700
           SW IRRIGATION =           0.0000             SW IRRIGATION =           0.0000
        SYSTEM LOSSES GW =           0.0000          SYSTEM LOSSES GW =           0.0000
        SYSTEM LOSSES SW =           0.0000          SYSTEM LOSSES SW =           0.0000

               TOTAL OUT =  1334573312.0000                 TOTAL OUT =           7.4700

                IN - OUT =           0.0000                  IN - OUT =           0.0000

     PERCENT DISCREPANCY =           0.00         PERCENT DISCREPANCY =           0.00



1
  VOLUMETRIC BUDGET FOR ENTIRE MODEL AT END OF TIME STEP   30, STRESS PERIOD  42
  ------------------------------------------------------------------------------

     CUMULATIVE VOLUMES      L**3       RATES FOR THIS TIME STEP      L**3/T
     ------------------                 ------------------------

           IN:                                      IN:
           ---                                      ---
             STORAGE     =  1797639040.0000               STORAGE     =           5.4882
       CONSTANT HEAD     =           0.0000         CONSTANT HEAD     =           0.0000
     HEAD DEP BOUNDS     =    30872004.0000       HEAD DEP BOUNDS     =           0.2880
      STREAM LEAKAGE     =  1321622016.0000        STREAM LEAKAGE     =          12.3085
        UZF RECHARGE     =   113794720.0000          UZF RECHARGE     =           0.0000
               GW ET     =           0.0000                 GW ET     =           0.0000
     SURFACE LEAKAGE     =           0.0000       SURFACE LEAKAGE     =           0.0000
           AG WELLS      =           0.0000             AG WELLS      =           0.0000

                TOTAL IN =  3263928064.0000                  TOTAL IN =          18.0848

          OUT:                                     OUT:
          ----                                     ----
             STORAGE     =   782684416.0000               STORAGE     =           0.8039
       CONSTANT HEAD     =           0.0000         CONSTANT HEAD     =           0.0000
     HEAD DEP BOUNDS     =    31512562.0000       HEAD DEP BOUNDS     =           0.2889
      STREAM LEAKAGE     =  1097556352.0000        STREAM LEAKAGE     =           9.5217
        UZF RECHARGE     =           0.0000          UZF RECHARGE     =           0.0000
               GW ET     =    17607784.0000                 GW ET     =           0.0000
     SURFACE LEAKAGE     =           0.0000       SURFACE LEAKAGE     =           0.0000
           AG WELLS      =  1334573312.0000             AG WELLS      =           7.4700

               TOTAL OUT =  3263934464.0000                 TOTAL OUT =          18.0845

                IN - OUT =       -6400.0000                  IN - OUT =       3.1090E-04

     PERCENT DISCREPANCY =          -0.00         PERCENT DISCREPANCY =           0.00






         TIME SUMMARY AT END OF TIME STEP   30 IN STRESS PERIOD   42
                    SECONDS     MINUTES      HOURS       DAYS        YEARS
                    -----------------------------------------------------------
   TIME STEP LENGTH  87667.      1461.1      24.352      1.0147     2.77799E-03
 STRESS PERIOD TIME 2.63000E+06  43833.      730.56      30.440     8.33397E-02
         TOTAL TIME 1.07916E+08 1.79859E+06  29977.      1249.0      3.4196    
1
1
                            STRESS PERIOD NO.   43, LENGTH =   2630000.    
                            -----------------------------------------------

                              NUMBER OF TIME STEPS =    30

                               MULTIPLIER FOR DELT =     1.000

                            INITIAL TIME STEP SIZE =   87666.66    

 REUSING NON-PARAMETER GHB CELLS FROM LAST STRESS PERIOD

      2 GHB CELLS

 REUSING STREAM SEGMENT DATA FROM LAST STRESS PERIOD



            AREAL INFILTRATION RATE
 READING ON UNIT   19 WITH FORMAT: (FREE)              

            1           2           3           4           5           6           7           8           9          10
 ........................................................................................................................
   1   1.0000E-10  2.0000E-10   0.000       0.000       0.000       0.000       0.000       0.000       0.000       0.000    
   2   2.0000E-10  1.0000E-10  2.0000E-10   0.000       0.000      8.0000E-10  8.0000E-10  5.0000E-10   0.000       0.000    
   3    0.000      5.0000E-10  1.0000E-10  1.0000E-10  8.0000E-10  8.0000E-10  5.0000E-10  5.0000E-10   0.000       0.000    
   4   8.0000E-10  5.0000E-10  1.0000E-10  1.0000E-10  1.0000E-10  1.0000E-10  1.0000E-10  1.0000E-10  2.0000E-10   0.000    
   5   8.0000E-10  5.0000E-10  1.0000E-10  1.0000E-10  1.0000E-10  1.0000E-10  1.0000E-10  1.0000E-10  1.0000E-10  1.0000E-10
   6   8.0000E-10  5.0000E-10  5.0000E-10  2.0000E-10  2.0000E-10  1.0000E-10  1.0000E-10  1.0000E-10  1.0000E-10  5.0000E-10
   7   8.0000E-10  5.0000E-10  5.0000E-10  2.0000E-10  2.0000E-10  1.0000E-10  1.0000E-10  2.0000E-10  2.0000E-10   0.000    
   8    0.000      5.0000E-10  5.0000E-10  2.0000E-10  2.0000E-10  1.0000E-10  1.0000E-10  2.0000E-10  5.0000E-10   0.000    
   9    0.000      5.0000E-10  5.0000E-10  2.0000E-10  2.0000E-10  1.0000E-10  1.0000E-10  2.0000E-10  5.0000E-10   0.000    
  10    0.000      5.0000E-10  5.0000E-10  2.0000E-10  2.0000E-10  1.0000E-10  1.0000E-10  2.0000E-10  5.0000E-10  8.0000E-10
  11    0.000      1.0000E-10  1.0000E-10  1.0000E-10  1.0000E-10  1.0000E-10  1.0000E-10  2.0000E-10  5.0000E-10   0.000    
  12   1.0000E-10  1.0000E-10  1.0000E-10  1.0000E-10  1.0000E-10  1.0000E-10  1.0000E-10  1.0000E-10  2.0000E-10   0.000    
  13   1.0000E-10  1.0000E-10  2.0000E-10  2.0000E-10  2.0000E-10  2.0000E-10  2.0000E-10  1.0000E-10  1.0000E-10   0.000    
  14    0.000      2.0000E-10  5.0000E-10  5.0000E-10  5.0000E-10  5.0000E-10  5.0000E-10  2.0000E-10  1.0000E-10   0.000    
  15    0.000       0.000      8.0000E-10  8.0000E-10  8.0000E-10  8.0000E-10   0.000       0.000       0.000       0.000    

                  ET RATE =  1.500000E-07

 USING ET EXTINCTION DEPTH FROM PREVIOUS STRESS PERIOD. CURRENT PERIOD IS:      43

 USING EXTINCTION WATER CONTENT FROM PREVIOUS STRESS PERIOD. CURRENT PERIOD IS:      43

 USING AIR ENTRY PRESSURE FROM PREVIOUS STRESS PERIOD. CURRENT PERIOD IS:      43

 USING ROOT PRESSURE HEAD FROM PREVIOUS STRESS PERIOD. CURRENT PERIOD IS:      43

 USING ROOT ACTIVITY FROM PREVIOUS STRESS PERIOD. CURRENT PERIOD IS:      43

 PROCESSING AG STRESS PERIOD DATA

 READING AG STRESS PERIOD DATA

 READING IRRIGATION WELL

 NO IRRPOND OR REUSING IRRPOND DATA FROM LAST STRESS PERIOD

 END PROCESSING AG STRESS PERIOD DATA OPTIONS
 
 SOLVING FOR HEAD 
                                                   Max.-Head-Change                         Max.-Flux-Residual
  Residual-Control   Outer-Iter.   Inner-Iter.     Column Row Layer    Maximum-Head-Change  Column Row Layer    Maximum-Flux-Residual          L2-NORM 
          0                 1           2             4    7     1      -0.5670865139E-01       4    7    1        -0.2964846335E+01      0.7037694825E+01
          0                 2           2             4    7     1       0.5516175171E-02       4    7    1         0.2964827588E+00      0.7037620618E+00
          0                 3           2             4    7     1      -0.3756313319E-03       4    7    1        -0.2075381757E-01      0.4926342458E-01
          0                 4           1             4    7     1       0.1494672105E-04       4    7    1         0.8488322528E-03      0.2014877532E-02

    ------------------------------------------------
       NWT REQUIRED            4 OUTER ITERATIONS 
       AND A TOTAL OF          7 INNER ITERATIONS.
    ------------------------------------------------

 NO OUTPUT CONTROL FOR STRESS PERIOD   43   TIME STEP    1
 
 SOLVING FOR HEAD 
                                                   Max.-Head-Change                         Max.-Flux-Residual
  Residual-Control   Outer-Iter.   Inner-Iter.     Column Row Layer    Maximum-Head-Change  Column Row Layer    Maximum-Flux-Residual          L2-NORM 
          0                 1           2             5    8     1       0.1921137106E-01       5    8    1         0.1033258220E+01      0.2360194913E+01
          0                 2           2             4    7     1      -0.7128256168E-01       5    8    1        -0.3848290785E+01      0.9402831782E+01
          0                 3           2             4    7     1       0.4854044306E-02       5    8    1         0.2693247196E+00      0.6581309925E+00
          0                 4           2             4    7     1      -0.1931471040E-03       5    8    1        -0.1101112156E-01      0.2691579353E-01
          0                 5           1             4    7     1       0.2381587190E-05       5    8    1         0.1392510785E-03      0.3420551596E-03

    ------------------------------------------------
       NWT REQUIRED            5 OUTER ITERATIONS 
       AND A TOTAL OF          9 INNER ITERATIONS.
    ------------------------------------------------

 NO OUTPUT CONTROL FOR STRESS PERIOD   43   TIME STEP    2
 
 SOLVING FOR HEAD 
                                                   Max.-Head-Change                         Max.-Flux-Residual
  Residual-Control   Outer-Iter.   Inner-Iter.     Column Row Layer    Maximum-Head-Change  Column Row Layer    Maximum-Flux-Residual          L2-NORM 
          0                 1           2             5    8     1       0.2053652301E-01       5    8    1         0.1106055094E+01      0.2492029601E+01
          0                 2           2             4    7     1      -0.7132055765E-01       5    8    1        -0.3855570875E+01      0.9415148754E+01
          0                 3           2             4    7     1       0.4855988101E-02       5    8    1         0.2698017269E+00      0.6589059971E+00
          0                 4           2             4    7     1      -0.1932244481E-03       5    8    1        -0.1103092096E-01      0.2694699201E-01
          0                 5           1             4    7     1       0.2382540884E-05       5    8    1         0.1395216386E-03      0.3422557884E-03

    ------------------------------------------------
       NWT REQUIRED            5 OUTER ITERATIONS 
       AND A TOTAL OF          9 INNER ITERATIONS.
    ------------------------------------------------

 NO OUTPUT CONTROL FOR STRESS PERIOD   43   TIME STEP    3
 
 SOLVING FOR HEAD 
                                                   Max.-Head-Change                         Max.-Flux-Residual
  Residual-Control   Outer-Iter.   Inner-Iter.     Column Row Layer    Maximum-Head-Change  Column Row Layer    Maximum-Flux-Residual          L2-NORM 
          0                 1           2             5    8     1       0.2179088732E-01       5    8    1         0.1174903115E+01      0.2621872631E+01
          0                 2           2             4    7     1      -0.7136010692E-01       5    8    1        -0.3862455841E+01      0.9427059760E+01
          0                 3           2             4    7     1       0.4858681531E-02       5    8    1         0.2702864014E+00      0.6597386877E+00
          0                 4           2             4    7     1      -0.1933316211E-03       5    8    1        -0.1105101390E-01      0.2698057973E-01
          0                 5           1             4    7     1       0.2383862547E-05       5    8    1         0.1397946039E-03      0.3425391187E-03

    ------------------------------------------------
       NWT REQUIRED            5 OUTER ITERATIONS 
       AND A TOTAL OF          9 INNER ITERATIONS.
    ------------------------------------------------

 NO OUTPUT CONTROL FOR STRESS PERIOD   43   TIME STEP    4
 
 SOLVING FOR HEAD 
                                                   Max.-Head-Change                         Max.-Flux-Residual
  Residual-Control   Outer-Iter.   Inner-Iter.     Column Row Layer    Maximum-Head-Change  Column Row Layer    Maximum-Flux-Residual          L2-NORM 
          0                 1           2             5    8     1       0.2297940301E-01       5    8    1         0.1240080085E+01      0.2749065693E+01
          0                 2           2             4    7     1      -0.7140105005E-01       5    8    1        -0.3868973699E+01      0.9438582597E+01
          0                 3           2             4    7     1       0.4861469854E-02       5    8    1         0.2707451941E+00      0.6605447664E+00
          0                 4           2             4    7     1      -0.1934425706E-03       5    8    1        -0.1107003003E-01      0.2701317606E-01
          0                 5           1             4    7     1       0.2385230473E-05       5    8    1         0.1400526417E-03      0.3428288217E-03

    ------------------------------------------------
       NWT REQUIRED            5 OUTER ITERATIONS 
       AND A TOTAL OF          9 INNER ITERATIONS.
    ------------------------------------------------

 NO OUTPUT CONTROL FOR STRESS PERIOD   43   TIME STEP    5
 
 SOLVING FOR HEAD 
                                                   Max.-Head-Change                         Max.-Flux-Residual
  Residual-Control   Outer-Iter.   Inner-Iter.     Column Row Layer    Maximum-Head-Change  Column Row Layer    Maximum-Flux-Residual          L2-NORM 
          0                 1           2             5    8     1       0.2410649572E-01       5    8    1         0.1301835333E+01      0.2873204590E+01
          0                 2           2             4    7     1      -0.7144324723E-01       5    8    1        -0.3875149383E+01      0.9449735028E+01
          0                 3           2             4    7     1       0.4864352798E-02       5    8    1         0.2726655619E+00      0.6619383646E+00
          0                 4           2             4    7     1      -0.1935572743E-03       5    8    1        -0.1114918717E-01      0.2706974086E-01
          0                 5           1             4    7     1       0.2386644996E-05       5    8    1         0.1411005369E-03      0.3433746769E-03

    ------------------------------------------------
       NWT REQUIRED            5 OUTER ITERATIONS 
       AND A TOTAL OF          9 INNER ITERATIONS.
    ------------------------------------------------

 NO OUTPUT CONTROL FOR STRESS PERIOD   43   TIME STEP    6
 
 SOLVING FOR HEAD 
                                                   Max.-Head-Change                         Max.-Flux-Residual
  Residual-Control   Outer-Iter.   Inner-Iter.     Column Row Layer    Maximum-Head-Change  Column Row Layer    Maximum-Flux-Residual          L2-NORM 
          0                 1           2             5    8     1       0.2516824306E-01       5    8    1         0.1361519009E+01      0.2994631370E+01
          0                 2           2             4    7     1      -0.7148653928E-01       5    8    1        -0.3880601584E+01      0.9460366748E+01
          0                 3           2             4    7     1       0.4867318794E-02       5    8    1         0.2752459172E+00      0.6636048825E+00
          0                 4           2             4    7     1      -0.1936752925E-03       5    8    1        -0.1125591223E-01      0.2713825575E-01
          0                 5           1             4    7     1       0.2388100293E-05       5    8    1         0.1425337477E-03      0.3441826481E-03

    ------------------------------------------------
       NWT REQUIRED            5 OUTER ITERATIONS 
       AND A TOTAL OF          9 INNER ITERATIONS.
    ------------------------------------------------

 NO OUTPUT CONTROL FOR STRESS PERIOD   43   TIME STEP    7
 
 SOLVING FOR HEAD 
                                                   Max.-Head-Change                         Max.-Flux-Residual
  Residual-Control   Outer-Iter.   Inner-Iter.     Column Row Layer    Maximum-Head-Change  Column Row Layer    Maximum-Flux-Residual          L2-NORM 
          0                 1           2             5    8     1       0.2621764959E-01       5    8    1         0.1419047525E+01      0.3113086644E+01
          0                 2           2             4    7     1      -0.7153077374E-01       5    8    1        -0.3886869085E+01      0.9471120148E+01
          0                 3           2             4    7     1       0.4870306322E-02       5    8    1         0.2720116018E+00      0.6628334942E+00
          0                 4           2             4    7     1      -0.1937941689E-03       5    8    1        -0.1112217764E-01      0.2710625204E-01
          0                 5           1             4    7     1       0.2389566119E-05       5    8    1         0.1407404588E-03      0.3437335894E-03

    ------------------------------------------------
       NWT REQUIRED            5 OUTER ITERATIONS 
       AND A TOTAL OF          9 INNER ITERATIONS.
    ------------------------------------------------

 NO OUTPUT CONTROL FOR STRESS PERIOD   43   TIME STEP    8
 
 SOLVING FOR HEAD 
                                                   Max.-Head-Change                         Max.-Flux-Residual
  Residual-Control   Outer-Iter.   Inner-Iter.     Column Row Layer    Maximum-Head-Change  Column Row Layer    Maximum-Flux-Residual          L2-NORM 
          0                 1           2             5    8     1       0.2721336558E-01       5    8    1         0.1473583698E+01      0.3227970245E+01
          0                 2           2             4    7     1      -0.7157588780E-01       5    8    1        -0.3892322681E+01      0.9481330707E+01
          0                 3           2             4    7     1       0.4873378595E-02       5    8    1         0.2723954585E+00      0.6635506163E+00
          0                 4           2             4    7     1      -0.1939164161E-03       5    8    1        -0.1113808154E-01      0.2713558162E-01
          0                 5           1             4    7     1       0.2391073391E-05       5    8    1         0.1409558863E-03      0.3440347524E-03

    ------------------------------------------------
       NWT REQUIRED            5 OUTER ITERATIONS 
       AND A TOTAL OF          9 INNER ITERATIONS.
    ------------------------------------------------

 NO OUTPUT CONTROL FOR STRESS PERIOD   43   TIME STEP    9
 
 SOLVING FOR HEAD 
                                                   Max.-Head-Change                         Max.-Flux-Residual
  Residual-Control   Outer-Iter.   Inner-Iter.     Column Row Layer    Maximum-Head-Change  Column Row Layer    Maximum-Flux-Residual          L2-NORM 
          0                 1           2             5    8     1       0.2815894960E-01       5    8    1         0.1525328175E+01      0.3339274495E+01
          0                 2           2             4    7     1      -0.7162175103E-01       5    8    1        -0.3897497107E+01      0.9491223510E+01
          0                 3           2             4    7     1       0.4876501868E-02       5    8    1         0.2727596321E+00      0.6642456713E+00
          0                 4           2             4    7     1      -0.1940406934E-03       5    8    1        -0.1115316668E-01      0.2716405782E-01
          0                 5           1             4    7     1       0.2392605753E-05       5    8    1         0.1411599796E-03      0.3443398973E-03

    ------------------------------------------------
       NWT REQUIRED            5 OUTER ITERATIONS 
       AND A TOTAL OF          9 INNER ITERATIONS.
    ------------------------------------------------

 NO OUTPUT CONTROL FOR STRESS PERIOD   43   TIME STEP   10
 
 SOLVING FOR HEAD 
                                                   Max.-Head-Change                         Max.-Flux-Residual
  Residual-Control   Outer-Iter.   Inner-Iter.     Column Row Layer    Maximum-Head-Change  Column Row Layer    Maximum-Flux-Residual          L2-NORM 
          0                 1           2             5    8     1       0.2905768689E-01       5    8    1         0.1574465467E+01      0.3447041442E+01
          0                 2           2             4    7     1      -0.7166822666E-01       5    8    1        -0.3902410812E+01      0.9500811842E+01
          0                 3           2             4    7     1       0.4879666826E-02       5    8    1         0.2731054243E+00      0.6649195542E+00
          0                 4           2             4    7     1      -0.1941666294E-03       5    8    1        -0.1116748726E-01      0.2719170921E-01
          0                 5           1             4    7     1       0.2394158615E-05       5    8    1         0.1413535297E-03      0.3446431900E-03

    ------------------------------------------------
       NWT REQUIRED            5 OUTER ITERATIONS 
       AND A TOTAL OF          9 INNER ITERATIONS.
    ------------------------------------------------

 NO OUTPUT CONTROL FOR STRESS PERIOD   43   TIME STEP   11
 
 SOLVING FOR HEAD 
                                                   Max.-Head-Change                         Max.-Flux-Residual
  Residual-Control   Outer-Iter.   Inner-Iter.     Column Row Layer    Maximum-Head-Change  Column Row Layer    Maximum-Flux-Residual          L2-NORM 
          0                 1           2             5    8     1       0.2991260631E-01       5    8    1         0.1621165911E+01      0.3551354193E+01
          0                 2           2             4    7     1      -0.7171522617E-01       5    8    1        -0.3907080831E+01      0.9510109777E+01
          0                 3           2             4    7     1       0.4882867442E-02       5    8    1         0.2734340375E+00      0.6655732058E+00
          0                 4           2             4    7     1      -0.1942939839E-03       5    8    1        -0.1118109348E-01      0.2721856638E-01
          0                 5           1             4    7     1       0.2395728615E-05       5    8    1         0.1415372294E-03      0.3449472271E-03

    ------------------------------------------------
       NWT REQUIRED            5 OUTER ITERATIONS 
       AND A TOTAL OF          9 INNER ITERATIONS.
    ------------------------------------------------

 NO OUTPUT CONTROL FOR STRESS PERIOD   43   TIME STEP   12
 
 SOLVING FOR HEAD 
                                                   Max.-Head-Change                         Max.-Flux-Residual
  Residual-Control   Outer-Iter.   Inner-Iter.     Column Row Layer    Maximum-Head-Change  Column Row Layer    Maximum-Flux-Residual          L2-NORM 
          0                 1           2             5    8     1       0.3072663946E-01       5    8    1         0.1665594386E+01      0.3652295602E+01
          0                 2           2             4    7     1      -0.7176266683E-01       5    8    1        -0.3911523651E+01      0.9519128822E+01
          0                 3           2             4    7     1       0.4886098085E-02       5    8    1         0.2737466347E+00      0.6662074020E+00
          0                 4           2             4    7     1      -0.1944225334E-03       5    8    1        -0.1119403372E-01      0.2724465507E-01
          0                 5           1             4    7     1       0.2397313961E-05       5    8    1         0.1417117478E-03      0.3452498683E-03

    ------------------------------------------------
       NWT REQUIRED            5 OUTER ITERATIONS 
       AND A TOTAL OF          9 INNER ITERATIONS.
    ------------------------------------------------

 NO OUTPUT CONTROL FOR STRESS PERIOD   43   TIME STEP   13
 
 SOLVING FOR HEAD 
                                                   Max.-Head-Change                         Max.-Flux-Residual
  Residual-Control   Outer-Iter.   Inner-Iter.     Column Row Layer    Maximum-Head-Change  Column Row Layer    Maximum-Flux-Residual          L2-NORM 
          0                 1           2             5    8     1       0.3150235833E-01       5    8    1         0.1707895060E+01      0.3749965222E+01
          0                 2           2             4    7     1      -0.7181043282E-01       5    8    1        -0.3915753691E+01      0.9527880032E+01
          0                 3           2             4    7     1       0.4889350868E-02       5    8    1         0.2740442324E+00      0.6668228874E+00
          0                 4           2             4    7     1      -0.1945519646E-03       5    8    1        -0.1120635031E-01      0.2727000130E-01
          0                 5           1             4    7     1       0.2398910172E-05       5    8    1         0.1418776892E-03      0.3455503099E-03

    ------------------------------------------------
       NWT REQUIRED            5 OUTER ITERATIONS 
       AND A TOTAL OF          9 INNER ITERATIONS.
    ------------------------------------------------

 NO OUTPUT CONTROL FOR STRESS PERIOD   43   TIME STEP   14
 
 SOLVING FOR HEAD 
                                                   Max.-Head-Change                         Max.-Flux-Residual
  Residual-Control   Outer-Iter.   Inner-Iter.     Column Row Layer    Maximum-Head-Change  Column Row Layer    Maximum-Flux-Residual          L2-NORM 
          0                 1           2             5    8     1       0.3224228622E-01       5    8    1         0.1748209122E+01      0.3844480078E+01
          0                 2           2             4    7     1      -0.7185846864E-01       5    8    1        -0.3919785069E+01      0.9536375554E+01
          0                 3           2             4    7     1       0.4892622013E-02       5    8    1         0.2743278263E+00      0.6674204899E+00
          0                 4           2             4    7     1      -0.1946821261E-03       5    8    1        -0.1121808466E-01      0.2729463351E-01
          0                 5           1             4    7     1       0.2400514785E-05       5    8    1         0.1420355575E-03      0.3458471962E-03

    ------------------------------------------------
       NWT REQUIRED            5 OUTER ITERATIONS 
       AND A TOTAL OF          9 INNER ITERATIONS.
    ------------------------------------------------

 NO OUTPUT CONTROL FOR STRESS PERIOD   43   TIME STEP   15
 
 SOLVING FOR HEAD 
                                                   Max.-Head-Change                         Max.-Flux-Residual
  Residual-Control   Outer-Iter.   Inner-Iter.     Column Row Layer    Maximum-Head-Change  Column Row Layer    Maximum-Flux-Residual          L2-NORM 
          0                 1           2             5    8     1       0.3294846029E-01       5    8    1         0.1786651742E+01      0.3935948743E+01
          0                 2           2             4    7     1      -0.7190669670E-01       5    8    1        -0.3923629303E+01      0.9544624829E+01
          0                 3           2             4    7     1       0.4895906237E-02       5    8    1         0.2745982304E+00      0.6680008485E+00
          0                 4           2             4    7     1      -0.1948128079E-03       5    8    1        -0.1122927085E-01      0.2731857427E-01
          0                 5           1             4    7     1       0.2402126230E-05       5    8    1         0.1421859374E-03      0.3461406075E-03

    ------------------------------------------------
       NWT REQUIRED            5 OUTER ITERATIONS 
       AND A TOTAL OF          9 INNER ITERATIONS.
    ------------------------------------------------

 NO OUTPUT CONTROL FOR STRESS PERIOD   43   TIME STEP   16
 
 SOLVING FOR HEAD 
                                                   Max.-Head-Change                         Max.-Flux-Residual
  Residual-Control   Outer-Iter.   Inner-Iter.     Column Row Layer    Maximum-Head-Change  Column Row Layer    Maximum-Flux-Residual          L2-NORM 
          0                 1           2             5    8     1       0.3362334246E-01       5    8    1         0.1823359865E+01      0.4024503115E+01
          0                 2           2             4    7     1      -0.7195503297E-01       5    8    1        -0.3927300086E+01      0.9552639613E+01
          0                 3           2             4    7     1       0.4899197818E-02       5    8    1         0.2748564085E+00      0.6685647723E+00
          0                 4           2             4    7     1      -0.1949437829E-03       5    8    1        -0.1123994876E-01      0.2734185326E-01
          0                 5           1             4    7     1       0.2403741148E-05       5    8    1         0.1423293079E-03      0.3464303692E-03

    ------------------------------------------------
       NWT REQUIRED            5 OUTER ITERATIONS 
       AND A TOTAL OF          9 INNER ITERATIONS.
    ------------------------------------------------

 NO OUTPUT CONTROL FOR STRESS PERIOD   43   TIME STEP   17
 
 SOLVING FOR HEAD 
                                                   Max.-Head-Change                         Max.-Flux-Residual
  Residual-Control   Outer-Iter.   Inner-Iter.     Column Row Layer    Maximum-Head-Change  Column Row Layer    Maximum-Flux-Residual          L2-NORM 
          0                 1           2             5    8     1       0.3426849929E-01       5    8    1         0.1858421996E+01      0.4110231472E+01
          0                 2           2             4    7     1      -0.7200341166E-01       5    8    1        -0.3930806270E+01      0.9560426749E+01
          0                 3           2             4    7     1       0.4902492277E-02       5    8    1         0.2751029867E+00      0.6691127232E+00
          0                 4           2             4    7     1      -0.1950748720E-03       5    8    1        -0.1125014466E-01      0.2736448636E-01
          0                 5           1             4    7     1       0.2405357522E-05       5    8    1         0.1424660527E-03      0.3467160129E-03

    ------------------------------------------------
       NWT REQUIRED            5 OUTER ITERATIONS 
       AND A TOTAL OF          9 INNER ITERATIONS.
    ------------------------------------------------

 NO OUTPUT CONTROL FOR STRESS PERIOD   43   TIME STEP   18
 
 SOLVING FOR HEAD 
                                                   Max.-Head-Change                         Max.-Flux-Residual
  Residual-Control   Outer-Iter.   Inner-Iter.     Column Row Layer    Maximum-Head-Change  Column Row Layer    Maximum-Flux-Residual          L2-NORM 
          0                 1           2             5    8     1       0.3488594600E-01       5    8    1         0.1891950674E+01      0.4193261383E+01
          0                 2           2             4    7     1      -0.7205177231E-01       5    8    1        -0.3934159108E+01      0.9567996715E+01
          0                 3           2             4    7     1       0.4905785498E-02       5    8    1         0.2753387578E+00      0.6696454251E+00
          0                 4           2             4    7     1      -0.1952059118E-03       5    8    1        -0.1125989147E-01      0.2738650082E-01
          0                 5           1             4    7     1       0.2406973224E-05       5    8    1         0.1425966047E-03      0.3469967255E-03

    ------------------------------------------------
       NWT REQUIRED            5 OUTER ITERATIONS 
       AND A TOTAL OF          9 INNER ITERATIONS.
    ------------------------------------------------

 NO OUTPUT CONTROL FOR STRESS PERIOD   43   TIME STEP   19
 
 SOLVING FOR HEAD 
                                                   Max.-Head-Change                         Max.-Flux-Residual
  Residual-Control   Outer-Iter.   Inner-Iter.     Column Row Layer    Maximum-Head-Change  Column Row Layer    Maximum-Flux-Residual          L2-NORM 
          0                 1           2             5    8     1       0.3547727369E-01       5    8    1         0.1924034731E+01      0.4273702627E+01
          0                 2           2             4    7     1      -0.7210007254E-01       5    8    1        -0.3937367485E+01      0.9575358094E+01
          0                 3           2             4    7     1       0.4909074596E-02       5    8    1         0.2755643479E+00      0.6701634689E+00
          0                 4           2             4    7     1      -0.1953367882E-03       5    8    1        -0.1126921524E-01      0.2740791864E-01
          0                 5           1             4    7     1       0.2408587134E-05       5    8    1         0.1427213747E-03      0.3472745356E-03

    ------------------------------------------------
       NWT REQUIRED            5 OUTER ITERATIONS 
       AND A TOTAL OF          9 INNER ITERATIONS.
    ------------------------------------------------

 NO OUTPUT CONTROL FOR STRESS PERIOD   43   TIME STEP   20
 
 SOLVING FOR HEAD 
                                                   Max.-Head-Change                         Max.-Flux-Residual
  Residual-Control   Outer-Iter.   Inner-Iter.     Column Row Layer    Maximum-Head-Change  Column Row Layer    Maximum-Flux-Residual          L2-NORM 
          0                 1           2             5    8     1       0.3604409427E-01       5    8    1         0.1954764495E+01      0.4351668371E+01
          0                 2           2             4    7     1      -0.7214826085E-01       5    8    1        -0.3940440432E+01      0.9582519528E+01
          0                 3           2             4    7     1       0.4912356064E-02       5    8    1         0.2757803951E+00      0.6706673286E+00
          0                 4           2             4    7     1      -0.1954673609E-03       5    8    1        -0.1127814258E-01      0.2742874500E-01
          0                 5           1             4    7     1       0.2410197459E-05       5    8    1         0.1428406886E-03      0.3481644272E-03

    ------------------------------------------------
       NWT REQUIRED            5 OUTER ITERATIONS 
       AND A TOTAL OF          9 INNER ITERATIONS.
    ------------------------------------------------

 NO OUTPUT CONTROL FOR STRESS PERIOD   43   TIME STEP   21
 
 SOLVING FOR HEAD 
                                                   Max.-Head-Change                         Max.-Flux-Residual
  Residual-Control   Outer-Iter.   Inner-Iter.     Column Row Layer    Maximum-Head-Change  Column Row Layer    Maximum-Flux-Residual          L2-NORM 
          0                 1           2             5    8     1       0.3658776322E-01       5    8    1         0.1984215714E+01      0.4427249184E+01
          0                 2           2             4    7     1      -0.7219626357E-01       5    8    1        -0.3943385524E+01      0.9589487404E+01
          0                 3           2             4    7     1       0.4915624886E-02       5    8    1         0.2759874329E+00      0.6711575404E+00
          0                 4           2             4    7     1      -0.1955974303E-03       5    8    1        -0.1128669565E-01      0.2744900959E-01
          0                 5           1             4    7     1       0.2411800840E-05       5    8    1         0.1429548729E-03      0.3478076919E-03

    ------------------------------------------------
       NWT REQUIRED            5 OUTER ITERATIONS 
       AND A TOTAL OF          9 INNER ITERATIONS.
    ------------------------------------------------

 NO OUTPUT CONTROL FOR STRESS PERIOD   43   TIME STEP   22
 
 SOLVING FOR HEAD 
                                                   Max.-Head-Change                         Max.-Flux-Residual
  Residual-Control   Outer-Iter.   Inner-Iter.     Column Row Layer    Maximum-Head-Change  Column Row Layer    Maximum-Flux-Residual          L2-NORM 
          0                 1           2             5    8     1       0.3710968590E-01       5    8    1         0.2012466498E+01      0.4500553087E+01
          0                 2           2             4    7     1      -0.7224406481E-01       5    8    1        -0.3946210573E+01      0.9596270363E+01
          0                 3           2             4    7     1       0.4918879981E-02       5    8    1         0.2761860116E+00      0.6716343098E+00
          0                 4           2             4    7     1      -0.1957269533E-03       5    8    1        -0.1129489731E-01      0.2746868082E-01
          0                 5           1             4    7     1       0.2413397835E-05       5    8    1         0.1430642269E-03      0.3480642945E-03

    ------------------------------------------------
       NWT REQUIRED            5 OUTER ITERATIONS 
       AND A TOTAL OF          9 INNER ITERATIONS.
    ------------------------------------------------

 NO OUTPUT CONTROL FOR STRESS PERIOD   43   TIME STEP   23
 
 SOLVING FOR HEAD 
                                                   Max.-Head-Change                         Max.-Flux-Residual
  Residual-Control   Outer-Iter.   Inner-Iter.     Column Row Layer    Maximum-Head-Change  Column Row Layer    Maximum-Flux-Residual          L2-NORM 
          0                 1           2             5    8     1       0.3761129931E-01       5    8    1         0.2039597538E+01      0.4571670687E+01
          0                 2           2             4    7     1      -0.7229162462E-01       5    8    1        -0.3948923649E+01      0.9602874596E+01
          0                 3           2             4    7     1       0.4922118629E-02       5    8    1         0.2763767007E+00      0.6720979673E+00
          0                 4           2             4    7     1      -0.1958558224E-03       5    8    1        -0.1130277125E-01      0.2748776048E-01
          0                 5           1             4    7     1       0.2414987214E-05       5    8    1         0.1431690898E-03      0.3483074586E-03

    ------------------------------------------------
       NWT REQUIRED            5 OUTER ITERATIONS 
       AND A TOTAL OF          9 INNER ITERATIONS.
    ------------------------------------------------

 NO OUTPUT CONTROL FOR STRESS PERIOD   43   TIME STEP   24
 
 SOLVING FOR HEAD 
                                                   Max.-Head-Change                         Max.-Flux-Residual
  Residual-Control   Outer-Iter.   Inner-Iter.     Column Row Layer    Maximum-Head-Change  Column Row Layer    Maximum-Flux-Residual          L2-NORM 
          0                 1           2             5    8     1       0.3809337895E-01       5    8    1         0.2065652042E+01      0.4640693255E+01
          0                 2           2             4    7     1      -0.7233888102E-01       5    8    1        -0.3951529070E+01      0.9609306851E+01
          0                 3           2             4    7     1       0.4925336609E-02       5    8    1         0.2765598058E+00      0.6725492126E+00
          0                 4           2             4    7     1      -0.1959838688E-03       5    8    1        -0.1131033036E-01      0.2750629892E-01
          0                 5           1             4    7     1       0.2416565839E-05       5    8    1         0.1432696508E-03      0.3485441833E-03

    ------------------------------------------------
       NWT REQUIRED            5 OUTER ITERATIONS 
       AND A TOTAL OF          9 INNER ITERATIONS.
    ------------------------------------------------

 NO OUTPUT CONTROL FOR STRESS PERIOD   43   TIME STEP   25
 
 SOLVING FOR HEAD 
                                                   Max.-Head-Change                         Max.-Flux-Residual
  Residual-Control   Outer-Iter.   Inner-Iter.     Column Row Layer    Maximum-Head-Change  Column Row Layer    Maximum-Flux-Residual          L2-NORM 
          0                 1           2             5    8     1       0.3855735761E-01       5    8    1         0.2090709345E+01      0.4707714889E+01
          0                 2           2             4    7     1      -0.7238582878E-01       5    8    1        -0.3954034772E+01      0.9615574461E+01
          0                 3           2             4    7     1       0.4928533566E-02       5    8    1         0.2767358845E+00      0.6729888620E+00
          0                 4           2             4    7     1      -0.1961110787E-03       5    8    1        -0.1131759761E-01      0.2752435811E-01
          0                 5           1             4    7     1       0.2418134159E-05       5    8    1         0.1433662073E-03      0.3487748949E-03

    ------------------------------------------------
       NWT REQUIRED            5 OUTER ITERATIONS 
       AND A TOTAL OF          9 INNER ITERATIONS.
    ------------------------------------------------

 NO OUTPUT CONTROL FOR STRESS PERIOD   43   TIME STEP   26
 
 SOLVING FOR HEAD 
                                                   Max.-Head-Change                         Max.-Flux-Residual
  Residual-Control   Outer-Iter.   Inner-Iter.     Column Row Layer    Maximum-Head-Change  Column Row Layer    Maximum-Flux-Residual          L2-NORM 
          0                 1           2             5    8     1       0.3900413843E-01       5    8    1         0.2114820263E+01      0.4772813721E+01
          0                 2           2             4    7     1      -0.7243242484E-01       5    8    1        -0.3956445836E+01      0.9621682718E+01
          0                 3           2             4    7     1       0.4931706568E-02       5    8    1         0.2769052956E+00      0.6734173156E+00
          0                 4           2             4    7     1      -0.1962373355E-03       5    8    1        -0.1132458802E-01      0.2754195726E-01
          0                 5           1             4    7     1       0.2419691277E-05       5    8    1         0.1434589808E-03      0.3490004354E-03

    ------------------------------------------------
       NWT REQUIRED            5 OUTER ITERATIONS 
       AND A TOTAL OF          9 INNER ITERATIONS.
    ------------------------------------------------

 NO OUTPUT CONTROL FOR STRESS PERIOD   43   TIME STEP   27
 
 SOLVING FOR HEAD 
                                                   Max.-Head-Change                         Max.-Flux-Residual
  Residual-Control   Outer-Iter.   Inner-Iter.     Column Row Layer    Maximum-Head-Change  Column Row Layer    Maximum-Flux-Residual          L2-NORM 
          0                 1           2             5    8     1       0.3943456355E-01       5    8    1         0.2138031624E+01      0.4836061621E+01
          0                 2           2             4    7     1      -0.7247864301E-01       5    8    1        -0.3958766944E+01      0.9627637001E+01
          0                 3           2             4    7     1       0.4934853833E-02       5    8    1         0.2770683699E+00      0.6738349508E+00
          0                 4           2             4    7     1      -0.1963625683E-03       5    8    1        -0.1133131538E-01      0.2755911119E-01
          0                 5           1             4    7     1       0.2421235625E-05       5    8    1         0.1435481445E-03      0.3492201752E-03

    ------------------------------------------------
       NWT REQUIRED            5 OUTER ITERATIONS 
       AND A TOTAL OF          9 INNER ITERATIONS.
    ------------------------------------------------

 NO OUTPUT CONTROL FOR STRESS PERIOD   43   TIME STEP   28
 
 SOLVING FOR HEAD 
                                                   Max.-Head-Change                         Max.-Flux-Residual
  Residual-Control   Outer-Iter.   Inner-Iter.     Column Row Layer    Maximum-Head-Change  Column Row Layer    Maximum-Flux-Residual          L2-NORM 
          0                 1           2             5    8     1       0.3984970089E-01       5    8    1         0.2160402741E+01      0.4897541004E+01
          0                 2           2             4    7     1      -0.7252445970E-01       5    8    1        -0.3961004029E+01      0.9633443225E+01
          0                 3           2             4    7     1       0.4937973754E-02       5    8    1         0.2772255249E+00      0.6742421827E+00
          0                 4           2             4    7     1      -0.1964867127E-03       5    8    1        -0.1133779696E-01      0.2757583752E-01
          0                 5           1             4    7     1       0.2422765972E-05       5    8    1         0.1436339303E-03      0.3494363009E-03

    ------------------------------------------------
       NWT REQUIRED            5 OUTER ITERATIONS 
       AND A TOTAL OF          9 INNER ITERATIONS.
    ------------------------------------------------

 NO OUTPUT CONTROL FOR STRESS PERIOD   43   TIME STEP   29
 
 SOLVING FOR HEAD 
                                                   Max.-Head-Change                         Max.-Flux-Residual
  Residual-Control   Outer-Iter.   Inner-Iter.     Column Row Layer    Maximum-Head-Change  Column Row Layer    Maximum-Flux-Residual          L2-NORM 
          0                 1           2             5    8     1       0.4025026557E-01       5    8    1         0.2181973339E+01      0.4957330066E+01
          0                 2           2             4    7     1      -0.7256986713E-01       5    8    1        -0.3963161062E+01      0.9639107567E+01
          0                 3           2             4    7     1       0.4941065802E-02       5    8    1         0.2773770409E+00      0.6746394438E+00
          0                 4           2             4    7     1      -0.1966097485E-03       5    8    1        -0.1134404449E-01      0.2759215311E-01
          0                 5           1             4    7     1       0.2424283101E-05       5    8    1         0.1437165379E-03      0.3496461815E-03

    ------------------------------------------------
       NWT REQUIRED            5 OUTER ITERATIONS 
       AND A TOTAL OF          9 INNER ITERATIONS.
    ------------------------------------------------

 NO OUTPUT CONTROL FOR STRESS PERIOD   43   TIME STEP   30



 STREAM LISTING     PERIOD     43   STEP       30

 LAYER ROW COL. STREAM  RCH.  FLOW INTO     FLOW TO   FLOW OUT OF   OVRLND.     DIRECT     STREAM       STREAM     STREAM     STREAM   STREAMBED  STREAMBED
                SEG.NO.  NO.  STRM. RCH.    AQUIFER    STRM. RCH.    RUNOFF     PRECIP       ET          HEAD       DEPTH      WIDTH   CONDCTNC.   GRADIENT

   1    1    1     1     1    1.9000E+01  2.1427E-01   1.8786E+01  0.000E+00  0.000E+00  0.000E+00  1.09413E+03  1.082E+00  1.166E+01  5.249E-02  1.361E+00
   1    2    2     1     2    1.8786E+01  3.3054E-01   1.8455E+01  0.000E+00  0.000E+00  0.000E+00  1.08914E+03  1.077E+00  1.158E+01  8.107E-02  1.359E+00
   1    3    3     1     3    1.8455E+01  2.8064E-01   1.8175E+01  0.000E+00  0.000E+00  0.000E+00  1.08349E+03  1.072E+00  1.149E+01  6.892E-02  1.357E+00
   1    3    4     1     4    1.8175E+01  2.5740E-01   1.7917E+01  0.000E+00  0.000E+00  0.000E+00  1.07848E+03  1.068E+00  1.140E+01  6.328E-02  1.356E+00
   1    4    5     2     1    1.5917E+01  3.0542E-01   1.5612E+01  0.000E+00  0.000E+00  0.000E+00  1.07285E+03  9.157E-01  1.200E+01  7.800E-02  1.305E+00
   1    5    6     2     2    1.5612E+01  2.3438E-01   1.5377E+01  0.000E+00  0.000E+00  0.000E+00  1.06742E+03  9.063E-01  1.200E+01  6.000E-02  1.302E+00
   1    6    6     2     3    1.5377E+01  2.3388E-01   1.5143E+01  0.000E+00  0.000E+00  0.000E+00  1.06269E+03  8.980E-01  1.200E+01  6.000E-02  1.299E+00
   1    7    6     2     4    1.5143E+01  2.3338E-01   1.4910E+01  0.000E+00  0.000E+00  0.000E+00  1.05797E+03  8.897E-01  1.200E+01  6.000E-02  1.297E+00
   1    8    6     2     5    1.4910E+01  2.3289E-01   1.4677E+01  0.000E+00  0.000E+00  0.000E+00  1.05324E+03  8.814E-01  1.200E+01  6.000E-02  1.294E+00
   1    3    5     3     1    2.0000E+00  2.8252E-01   1.7175E+00  0.000E+00  0.000E+00  0.000E+00  1.07555E+03  1.909E+00  9.636E+00  7.227E-02  1.955E+00
   1    3    6     3     2    1.7175E+00  2.4905E-01   1.4684E+00  0.000E+00  0.000E+00  0.000E+00  1.07264E+03  1.727E+00  8.909E+00  6.682E-02  1.864E+00
   1    3    7     3     3    1.4684E+00  1.9718E-01   1.2712E+00  0.000E+00  0.000E+00  0.000E+00  1.06987E+03  1.555E+00  8.218E+00  5.547E-02  1.777E+00
   1    4    8     3     4    1.2712E+00  2.2567E-01   1.0456E+00  0.000E+00  0.000E+00  0.000E+00  1.06682E+03  1.364E+00  7.455E+00  6.709E-02  1.682E+00
   1    5    8     3     5    1.0456E+00  1.5790E-01   8.8768E-01  0.000E+00  0.000E+00  0.000E+00  1.06362E+03  1.164E+00  6.655E+00  4.991E-02  1.582E+00
   1    6    8     3     6    8.8768E-01  5.5980E-02   8.3170E-01  0.000E+00  0.000E+00  0.000E+00  1.06158E+03  1.036E+00  6.145E+00  1.844E-02  1.518E+00
   1    5   10     4     1    1.0000E+01  9.0919E-02   9.9091E+00  0.000E+00  0.000E+00  0.000E+00  1.07836E+03  6.368E-01  1.000E+01  2.500E-02  1.212E+00
   1    5    9     4     2    9.9091E+00  1.8158E-01   9.7275E+00  0.000E+00  0.000E+00  0.000E+00  1.07154E+03  6.315E-01  1.000E+01  5.000E-02  1.211E+00
   1    6    8     4     3    9.7275E+00  1.2689E-01   9.6006E+00  0.000E+00  0.000E+00  0.000E+00  1.06381E+03  6.256E-01  1.000E+01  3.500E-02  1.209E+00
   1    6    8     5     1    1.0432E+01  2.2686E-01   1.0205E+01  0.000E+00  0.000E+00  0.000E+00  1.05868E+03  6.790E-01  1.542E+01  6.166E-02  1.226E+00
   1    7    7     5     2    1.0205E+01  2.7894E-01   9.9265E+00  0.000E+00  0.000E+00  0.000E+00  1.05417E+03  6.732E-01  1.519E+01  7.594E-02  1.224E+00
   1    8    7     5     3    9.9265E+00  1.9221E-01   9.7343E+00  0.000E+00  0.000E+00  0.000E+00  1.04992E+03  6.676E-01  1.497E+01  5.241E-02  1.223E+00
   1    8    6     5     4    9.7343E+00  1.3577E-01   9.5985E+00  0.000E+00  0.000E+00  0.000E+00  1.04691E+03  6.637E-01  1.482E+01  3.706E-02  1.221E+00
   1    9    6     6     1    2.4276E+01  2.5176E-01   2.4024E+01  0.000E+00  0.000E+00  0.000E+00  1.04392E+03  1.196E+00  1.200E+01  6.000E-02  1.399E+00
   1   10    7     6     2    2.4024E+01  2.5131E-01   2.3773E+01  0.000E+00  0.000E+00  0.000E+00  1.03937E+03  1.188E+00  1.200E+01  6.000E-02  1.396E+00
   1   11    7     6     3    2.3773E+01  2.5086E-01   2.3522E+01  0.000E+00  0.000E+00  0.000E+00  1.03482E+03  1.181E+00  1.200E+01  6.000E-02  1.394E+00
   1   12    7     6     4    2.3522E+01  2.5041E-01   2.3271E+01  0.000E+00  0.000E+00  0.000E+00  1.03026E+03  1.173E+00  1.200E+01  6.000E-02  1.391E+00
   1   13    7     6     5    2.3271E+01  1.1105E-02   2.3260E+01  0.000E+00  0.000E+00  0.000E+00  1.02708E+03  1.170E+00  1.200E+01  2.400E-02  1.542E-01
   1   14    9     7     1    1.5000E+02  1.3714E+00   1.4863E+02  0.000E+00  0.000E+00  0.000E+00  1.03987E+03  2.288E+00  5.529E+01  5.593E-01  8.173E-01
   1   13    8     7     2    1.4863E+02  1.9727E+00   1.4666E+02  0.000E+00  0.000E+00  0.000E+00  1.03478E+03  2.279E+00  5.525E+01  6.147E-01  1.070E+00
   1   13    7     7     3    1.4666E+02  1.7155E+00   1.4494E+02  0.000E+00  0.000E+00  0.000E+00  1.02969E+03  2.269E+00  5.521E+01  5.584E-01  1.024E+00
   1   13    6     8     1    1.6820E+02  1.1481E+00   1.6705E+02  0.000E+00  0.000E+00  0.000E+00  1.02481E+03  2.937E+00  4.258E+01  4.339E-01  8.819E-01
   1   13    5     8     2    1.6705E+02  3.8249E-01   1.6667E+02  0.000E+00  0.000E+00  0.000E+00  1.01856E+03  2.932E+00  4.251E+01  4.332E-01  2.943E-01
   1   13    4     8     3    1.6667E+02 -1.7496E+00   1.6842E+02  0.000E+00  0.000E+00  0.000E+00  1.01231E+03  2.936E+00  4.257E+01  4.338E+00 -1.344E-01
   1   13    3     8     4    1.6842E+02 -3.3081E+00   1.7173E+02  0.000E+00  0.000E+00  0.000E+00  1.00608E+03  2.953E+00  4.281E+01  4.363E+00 -2.527E-01
   1   13    2     8     5    1.7173E+02 -2.4912E+00   1.7422E+02  0.000E+00  0.000E+00  0.000E+00  9.99846E+02  2.971E+00  4.309E+01  4.391E+00 -1.891E-01
   1   13    1     8     6    1.7422E+02 -1.9599E+00   1.7618E+02  0.000E+00  0.000E+00  0.000E+00  9.94861E+02  2.986E+00  4.329E+01  2.647E+00 -2.468E-01





UNSATURATED ZONE PACKAGE VOLUMETRIC BUDGET FOR  TIME STEP    30 STRESS PERIOD   43
  ------------------------------------------------------------------------------



     CUMULATIVE VOLUMES      L**3       RATES FOR THIS TIME STEP      L**3/T
     ------------------                 ------------------------

           IN:                                      IN:
           ---                                      ---
        INFILTRATION =  1487360340.0055          INFILTRATION =          23.3175

          OUT:                                     OUT:
          ----                                     ----
              UZF ET =  1373487218.1521                UZF ET =          23.3175
        UZF RECHARGE =   113794615.5447          UZF RECHARGE =       0.0000E+00

            IN - OUT =       78506.3087              IN - OUT =       0.0000E+00

          STORAGE:                                 STORAGE:
          --------                                 --------
      STORAGE CHANGE =       78508.1612        STORAGE CHANGE =       1.0639E-11

 PERCENT DISCREPANCY IS DIFFERENCE BETWEEN IN-OUT MINUS CHANGE IN STORAGE
 DIVIDED BY THE AVERAGE OF IN AND OUT TIMES 100

 PERCENT DISCREPANCY =           0.00     PERCENT DISCREPANCY =           0.00






1
  VOLUMETRIC BUDGET FOR AGRICULTURAL FIELDS AT  END OF TIME STEP   30, STRESS PERIOD  43
  ------------------------------------------------------------------------------

     CUMULATIVE VOLUMES      L**3       RATES FOR THIS TIME STEP      L**3/T
     ------------------                 ------------------------

           IN:                                      IN:
           ---                                      ---
               AG WELLS  =  1393673344.0000                 AG WELLS  =          22.4700
      DIVERSION SEGMENTS =           0.0000        DIVERSION SEGMENTS =           0.0000
       IRRIGATION PONDS  =           0.0000         IRRIGATION PONDS  =           0.0000
           GW IRRIGATION =           0.0000             GW IRRIGATION =           0.0000
           SW IRRIGATION =           0.0000             SW IRRIGATION =           0.0000
        SYSTEM LOSSES GW =           0.0000          SYSTEM LOSSES GW =           0.0000
        SYSTEM LOSSES SW =           0.0000          SYSTEM LOSSES SW =           0.0000

                TOTAL IN =  1393673344.0000                  TOTAL IN =          22.4700

          OUT:                                     OUT:
          ----                                     ----
               AG WELLS  =           0.0000                 AG WELLS  =           0.0000
      DIVERSION SEGMENTS =           0.0000        DIVERSION SEGMENTS =           0.0000
       IRRIGATION PONDS  =           0.0000         IRRIGATION PONDS  =           0.0000
           GW IRRIGATION =  1393673344.0000             GW IRRIGATION =          22.4700
           SW IRRIGATION =           0.0000             SW IRRIGATION =           0.0000
        SYSTEM LOSSES GW =           0.0000          SYSTEM LOSSES GW =           0.0000
        SYSTEM LOSSES SW =           0.0000          SYSTEM LOSSES SW =           0.0000

               TOTAL OUT =  1393673344.0000                 TOTAL OUT =          22.4700

                IN - OUT =           0.0000                  IN - OUT =           0.0000

     PERCENT DISCREPANCY =           0.00         PERCENT DISCREPANCY =           0.00



1
  VOLUMETRIC BUDGET FOR ENTIRE MODEL AT END OF TIME STEP   30, STRESS PERIOD  43
  ------------------------------------------------------------------------------

     CUMULATIVE VOLUMES      L**3       RATES FOR THIS TIME STEP      L**3/T
     ------------------                 ------------------------

           IN:                                      IN:
           ---                                      ---
             STORAGE     =  1850030208.0000               STORAGE     =          19.6829
       CONSTANT HEAD     =           0.0000         CONSTANT HEAD     =           0.0000
     HEAD DEP BOUNDS     =    31629742.0000       HEAD DEP BOUNDS     =           0.2882
      STREAM LEAKAGE     =  1354023552.0000        STREAM LEAKAGE     =          12.3299
        UZF RECHARGE     =   113794720.0000          UZF RECHARGE     =           0.0000
               GW ET     =           0.0000                 GW ET     =           0.0000
     SURFACE LEAKAGE     =           0.0000       SURFACE LEAKAGE     =           0.0000
           AG WELLS      =           0.0000             AG WELLS      =           0.0000

                TOTAL IN =  3349478144.0000                  TOTAL IN =          32.3010

          OUT:                                     OUT:
          ----                                     ----
             STORAGE     =   783352960.0000               STORAGE     =       3.3426E-02
       CONSTANT HEAD     =           0.0000         CONSTANT HEAD     =           0.0000
     HEAD DEP BOUNDS     =    32272244.0000       HEAD DEP BOUNDS     =           0.2888
      STREAM LEAKAGE     =  1122579712.0000        STREAM LEAKAGE     =           9.5087
        UZF RECHARGE     =           0.0000          UZF RECHARGE     =           0.0000
               GW ET     =    17607784.0000                 GW ET     =           0.0000
     SURFACE LEAKAGE     =           0.0000       SURFACE LEAKAGE     =           0.0000
           AG WELLS      =  1393673344.0000             AG WELLS      =          22.4700

               TOTAL OUT =  3349486080.0000                 TOTAL OUT =          32.3009

                IN - OUT =       -7936.0000                  IN - OUT =       1.9073E-05

     PERCENT DISCREPANCY =          -0.00         PERCENT DISCREPANCY =           0.00






         TIME SUMMARY AT END OF TIME STEP   30 IN STRESS PERIOD   43
                    SECONDS     MINUTES      HOURS       DAYS        YEARS
                    -----------------------------------------------------------
   TIME STEP LENGTH  87667.      1461.1      24.352      1.0147     2.77799E-03
 STRESS PERIOD TIME 2.63000E+06  43833.      730.56      30.440     8.33397E-02
         TOTAL TIME 1.10545E+08 1.84242E+06  30707.      1279.5      3.5030    
1
1
                            STRESS PERIOD NO.   44, LENGTH =   2630000.    
                            -----------------------------------------------

                              NUMBER OF TIME STEPS =    30

                               MULTIPLIER FOR DELT =     1.000

                            INITIAL TIME STEP SIZE =   87666.66    

 REUSING NON-PARAMETER GHB CELLS FROM LAST STRESS PERIOD

      2 GHB CELLS

 REUSING STREAM SEGMENT DATA FROM LAST STRESS PERIOD



            AREAL INFILTRATION RATE
 READING ON UNIT   19 WITH FORMAT: (FREE)              

            1           2           3           4           5           6           7           8           9          10
 ........................................................................................................................
   1   1.0000E-10  2.0000E-10   0.000       0.000       0.000       0.000       0.000       0.000       0.000       0.000    
   2   2.0000E-10  1.0000E-10  2.0000E-10   0.000       0.000      8.0000E-10  8.0000E-10  5.0000E-10   0.000       0.000    
   3    0.000      5.0000E-10  1.0000E-10  1.0000E-10  8.0000E-10  8.0000E-10  5.0000E-10  5.0000E-10   0.000       0.000    
   4   8.0000E-10  5.0000E-10  1.0000E-10  1.0000E-10  1.0000E-10  1.0000E-10  1.0000E-10  1.0000E-10  2.0000E-10   0.000    
   5   8.0000E-10  5.0000E-10  1.0000E-10  1.0000E-10  1.0000E-10  1.0000E-10  1.0000E-10  1.0000E-10  1.0000E-10  1.0000E-10
   6   8.0000E-10  5.0000E-10  5.0000E-10  2.0000E-10  2.0000E-10  1.0000E-10  1.0000E-10  1.0000E-10  1.0000E-10  5.0000E-10
   7   8.0000E-10  5.0000E-10  5.0000E-10  2.0000E-10  2.0000E-10  1.0000E-10  1.0000E-10  2.0000E-10  2.0000E-10   0.000    
   8    0.000      5.0000E-10  5.0000E-10  2.0000E-10  2.0000E-10  1.0000E-10  1.0000E-10  2.0000E-10  5.0000E-10   0.000    
   9    0.000      5.0000E-10  5.0000E-10  2.0000E-10  2.0000E-10  1.0000E-10  1.0000E-10  2.0000E-10  5.0000E-10   0.000    
  10    0.000      5.0000E-10  5.0000E-10  2.0000E-10  2.0000E-10  1.0000E-10  1.0000E-10  2.0000E-10  5.0000E-10  8.0000E-10
  11    0.000      1.0000E-10  1.0000E-10  1.0000E-10  1.0000E-10  1.0000E-10  1.0000E-10  2.0000E-10  5.0000E-10   0.000    
  12   1.0000E-10  1.0000E-10  1.0000E-10  1.0000E-10  1.0000E-10  1.0000E-10  1.0000E-10  1.0000E-10  2.0000E-10   0.000    
  13   1.0000E-10  1.0000E-10  2.0000E-10  2.0000E-10  2.0000E-10  2.0000E-10  2.0000E-10  1.0000E-10  1.0000E-10   0.000    
  14    0.000      2.0000E-10  5.0000E-10  5.0000E-10  5.0000E-10  5.0000E-10  5.0000E-10  2.0000E-10  1.0000E-10   0.000    
  15    0.000       0.000      8.0000E-10  8.0000E-10  8.0000E-10  8.0000E-10   0.000       0.000       0.000       0.000    

                  ET RATE =  4.000000E-07

 USING ET EXTINCTION DEPTH FROM PREVIOUS STRESS PERIOD. CURRENT PERIOD IS:      44

 USING EXTINCTION WATER CONTENT FROM PREVIOUS STRESS PERIOD. CURRENT PERIOD IS:      44

 USING AIR ENTRY PRESSURE FROM PREVIOUS STRESS PERIOD. CURRENT PERIOD IS:      44

 USING ROOT PRESSURE HEAD FROM PREVIOUS STRESS PERIOD. CURRENT PERIOD IS:      44

 USING ROOT ACTIVITY FROM PREVIOUS STRESS PERIOD. CURRENT PERIOD IS:      44

 PROCESSING AG STRESS PERIOD DATA

 READING AG STRESS PERIOD DATA

 READING IRRIGATION WELL

 NO IRRPOND OR REUSING IRRPOND DATA FROM LAST STRESS PERIOD

 END PROCESSING AG STRESS PERIOD DATA OPTIONS
 
 SOLVING FOR HEAD 
                                                   Max.-Head-Change                         Max.-Flux-Residual
  Residual-Control   Outer-Iter.   Inner-Iter.     Column Row Layer    Maximum-Head-Change  Column Row Layer    Maximum-Flux-Residual          L2-NORM 
          0                 1           2             4    7     1      -0.1623767640E+00       4    7    1        -0.8490516892E+01      0.1987481565E+02
          0                 2           2             6    7     1       0.1200630663E-02       6    7    1         0.6595909116E-01      0.1759715945E+00
          0                 3           2             5    6     1      -0.1202090651E-01       4    7    1        -0.6477335139E+00      0.1579177257E+01
          0                 4           2             4    7     1      -0.9006133109E-02       5    7    1        -0.4981757157E+00      0.1187220912E+01
          0                 5           2             5    6     1       0.8351656743E-03       5    6    1         0.4674732383E-01      0.7719041303E-01
          0                 6           1             5    6     1      -0.5687172559E-04       5    6    1        -0.3310532687E-02      0.4700878792E-02

    ------------------------------------------------
       NWT REQUIRED            6 OUTER ITERATIONS 
       AND A TOTAL OF         11 INNER ITERATIONS.
    ------------------------------------------------

 NO OUTPUT CONTROL FOR STRESS PERIOD   44   TIME STEP    1
 
 SOLVING FOR HEAD 
                                                   Max.-Head-Change                         Max.-Flux-Residual
  Residual-Control   Outer-Iter.   Inner-Iter.     Column Row Layer    Maximum-Head-Change  Column Row Layer    Maximum-Flux-Residual          L2-NORM 
          0                 1           2             5    8     1       0.3743022967E-01       5    8    1         0.2038286056E+01      0.4589050231E+01
          0                 2           2             4    7     1      -0.1804042571E+00       5    8    1        -0.9770047922E+01      0.2384096856E+02
          0                 3           2             4    7     1      -0.2369541395E-02       4    7    1        -0.1272947544E+00      0.3031318620E+00
          0                 4           2             4    7     1      -0.1185856490E-01       5    8    1        -0.6368650525E+00      0.1559549519E+01
          0                 5           2             4    7     1      -0.8932317545E-02       4    7    1        -0.4793847200E+00      0.1174214516E+01
          0                 6           2             4    7     1       0.6085178923E-03       4    7    1         0.3357078363E-01      0.8222288478E-01
          0                 7           1             4    7     1      -0.2423072431E-04       4    7    1        -0.1373974166E-02      0.3365183857E-02

    ------------------------------------------------
       NWT REQUIRED            7 OUTER ITERATIONS 
       AND A TOTAL OF         13 INNER ITERATIONS.
    ------------------------------------------------

 NO OUTPUT CONTROL FOR STRESS PERIOD   44   TIME STEP    2
 
 SOLVING FOR HEAD 
                                                   Max.-Head-Change                         Max.-Flux-Residual
  Residual-Control   Outer-Iter.   Inner-Iter.     Column Row Layer    Maximum-Head-Change  Column Row Layer    Maximum-Flux-Residual          L2-NORM 
          0                 1           2             5    8     1       0.4195350075E-01       5    8    1         0.2287137534E+01      0.5110550437E+01
          0                 2           2             4    7     1      -0.1805252128E+00       5    8    1        -0.9794467380E+01      0.2388147862E+02
          0                 3           2             4    7     1      -0.2361107300E-02       4    7    1        -0.1268643293E+00      0.3004180329E+00
          0                 4           2             4    7     1      -0.1185918386E-01       5    8    1        -0.6369864755E+00      0.1559749239E+01
          0                 5           2             4    7     1      -0.8932297326E-02       4    7    1        -0.4793825927E+00      0.1174200387E+01
          0                 6           2             4    7     1       0.6085165148E-03       4    7    1         0.3357063343E-01      0.8222189743E-01
          0                 7           1             4    7     1      -0.2423066962E-04       4    7    1        -0.1373967894E-02      0.3365145552E-02

    ------------------------------------------------
       NWT REQUIRED            7 OUTER ITERATIONS 
       AND A TOTAL OF         13 INNER ITERATIONS.
    ------------------------------------------------

 NO OUTPUT CONTROL FOR STRESS PERIOD   44   TIME STEP    3
 
 SOLVING FOR HEAD 
                                                   Max.-Head-Change                         Max.-Flux-Residual
  Residual-Control   Outer-Iter.   Inner-Iter.     Column Row Layer    Maximum-Head-Change  Column Row Layer    Maximum-Flux-Residual          L2-NORM 
          0                 1           2             5    8     1       0.4623824763E-01       5    8    1         0.2522636591E+01      0.5613888974E+01
          0                 2           2             4    7     1      -0.1806608426E+00       5    8    1        -0.9818016959E+01      0.2392187328E+02
          0                 3           2             4    7     1      -0.2351648299E-02       4    7    1        -0.1263769128E+00      0.2977423350E+00
          0                 4           2             4    7     1      -0.1185987623E-01       5    8    1        -0.6371035112E+00      0.1559948172E+01
          0                 5           2             4    7     1      -0.8932273313E-02       4    7    1        -0.4793801864E+00      0.1174186325E+01
          0                 6           2             4    7     1       0.6085148789E-03       4    7    1         0.3357046373E-01      0.8222091478E-01
          0                 7           1             4    7     1      -0.2423060423E-04       4    7    1        -0.1373960825E-02      0.3365107334E-02

    ------------------------------------------------
       NWT REQUIRED            7 OUTER ITERATIONS 
       AND A TOTAL OF         13 INNER ITERATIONS.
    ------------------------------------------------

 NO OUTPUT CONTROL FOR STRESS PERIOD   44   TIME STEP    4
 
 SOLVING FOR HEAD 
                                                   Max.-Head-Change                         Max.-Flux-Residual
  Residual-Control   Outer-Iter.   Inner-Iter.     Column Row Layer    Maximum-Head-Change  Column Row Layer    Maximum-Flux-Residual          L2-NORM 
          0                 1           2             5    8     1       0.5029306770E-01       5    8    1         0.2745293821E+01      0.6097859430E+01
          0                 2           2             4    7     1      -0.1808010545E+00       5    8    1        -0.9840282331E+01      0.2396095696E+02
          0                 3           2             4    7     1      -0.2341870642E-02       4    7    1        -0.1258705212E+00      0.2951831445E+00
          0                 4           2             4    7     1      -0.1186059243E-01       5    8    1        -0.6372141400E+00      0.1560140494E+01
          0                 5           2             4    7     1      -0.8932248864E-02       4    7    1        -0.4793776874E+00      0.1174172738E+01
          0                 6           2             4    7     1       0.6085132128E-03       4    7    1         0.3357028754E-01      0.8221996528E-01
          0                 7           1             4    7     1      -0.2423053768E-04       4    7    1        -0.1373953487E-02      0.3365070479E-02

    ------------------------------------------------
       NWT REQUIRED            7 OUTER ITERATIONS 
       AND A TOTAL OF         13 INNER ITERATIONS.
    ------------------------------------------------

 NO OUTPUT CONTROL FOR STRESS PERIOD   44   TIME STEP    5
 
 SOLVING FOR HEAD 
                                                   Max.-Head-Change                         Max.-Flux-Residual
  Residual-Control   Outer-Iter.   Inner-Iter.     Column Row Layer    Maximum-Head-Change  Column Row Layer    Maximum-Flux-Residual          L2-NORM 
          0                 1           2             5    8     1       0.5413387182E-01       5    8    1         0.2956005561E+01      0.6562786705E+01
          0                 2           2             4    7     1      -0.1809453671E+00       5    8    1        -0.9861353135E+01      0.2399878614E+02
          0                 3           2             4    7     1      -0.2331807869E-02       4    7    1        -0.1253477157E+00      0.2927313854E+00
          0                 4           2             4    7     1      -0.1186132998E-01       5    8    1        -0.6373188095E+00      0.1560325698E+01
          0                 5           2             4    7     1      -0.8932224053E-02       4    7    1        -0.4793739623E+00      0.1174159139E+01
          0                 6           2             4    7     1       0.6085115226E-03       4    7    1         0.3357108124E-01      0.8221944693E-01
          0                 7           1             4    7     1      -0.2423047079E-04       4    7    1        -0.1374057519E-02      0.3365074145E-02

    ------------------------------------------------
       NWT REQUIRED            7 OUTER ITERATIONS 
       AND A TOTAL OF         13 INNER ITERATIONS.
    ------------------------------------------------

 NO OUTPUT CONTROL FOR STRESS PERIOD   44   TIME STEP    6
 
 SOLVING FOR HEAD 
                                                   Max.-Head-Change                         Max.-Flux-Residual
  Residual-Control   Outer-Iter.   Inner-Iter.     Column Row Layer    Maximum-Head-Change  Column Row Layer    Maximum-Flux-Residual          L2-NORM 
          0                 1           2             5    8     1       0.5777514997E-01       5    8    1         0.3155588975E+01      0.7009268217E+01
          0                 2           2             4    7     1      -0.1810933027E+00       5    8    1        -0.9881311094E+01      0.2403541315E+02
          0                 3           2             4    7     1      -0.2321493253E-02       4    7    1        -0.1248100159E+00      0.2903791099E+00
          0                 4           2             4    7     1      -0.1186208644E-01       5    8    1        -0.6374179285E+00      0.1560504250E+01
          0                 5           2             4    7     1      -0.8932198952E-02       4    7    1        -0.4793713334E+00      0.1174145638E+01
          0                 6           2             4    7     1       0.6085098122E-03       4    7    1         0.3357089740E-01      0.8221924447E-01
          0                 7           1             4    7     1      -0.2423040229E-04       4    7    1        -0.1374049995E-02      0.3365106243E-02

    ------------------------------------------------
       NWT REQUIRED            7 OUTER ITERATIONS 
       AND A TOTAL OF         13 INNER ITERATIONS.
    ------------------------------------------------

 NO OUTPUT CONTROL FOR STRESS PERIOD   44   TIME STEP    7
 
 SOLVING FOR HEAD 
                                                   Max.-Head-Change                         Max.-Flux-Residual
  Residual-Control   Outer-Iter.   Inner-Iter.     Column Row Layer    Maximum-Head-Change  Column Row Layer    Maximum-Flux-Residual          L2-NORM 
          0                 1           2             5    8     1       0.6123038812E-01       5    8    1         0.3344803179E+01      0.7438038064E+01
          0                 2           2             4    7     1      -0.1812444136E+00       5    8    1        -0.9900232122E+01      0.2407088962E+02
          0                 3           2             4    7     1      -0.2310957970E-02       4    7    1        -0.1242588882E+00      0.2881189543E+00
          0                 4           2             4    7     1      -0.1186285950E-01       5    8    1        -0.6375118758E+00      0.1560678242E+01
          0                 5           2             4    7     1      -0.8932173628E-02       4    7    1        -0.4793686384E+00      0.1174133374E+01
          0                 6           2             4    7     1       0.6085080873E-03       4    7    1         0.3357070896E-01      0.8221838810E-01
          0                 7           1             4    7     1      -0.2423033378E-04       4    7    1        -0.1374042297E-02      0.3365072766E-02

    ------------------------------------------------
       NWT REQUIRED            7 OUTER ITERATIONS 
       AND A TOTAL OF         13 INNER ITERATIONS.
    ------------------------------------------------

 NO OUTPUT CONTROL FOR STRESS PERIOD   44   TIME STEP    8
 
 SOLVING FOR HEAD 
                                                   Max.-Head-Change                         Max.-Flux-Residual
  Residual-Control   Outer-Iter.   Inner-Iter.     Column Row Layer    Maximum-Head-Change  Column Row Layer    Maximum-Flux-Residual          L2-NORM 
          0                 1           2             5    8     1       0.6451200225E-01       5    8    1         0.3524347420E+01      0.7849890673E+01
          0                 2           2             4    7     1      -0.1813982940E+00       5    8    1        -0.9918186147E+01      0.2410526353E+02
          0                 3           2             4    7     1      -0.2300230304E-02       4    7    1        -0.1236959439E+00      0.2859305275E+00
          0                 4           2             4    7     1      -0.1186364709E-01       5    8    1        -0.6376010011E+00      0.1560833830E+01
          0                 5           2             4    7     1      -0.8932148141E-02       4    7    1        -0.4793658854E+00      0.1174114197E+01
          0                 6           2             4    7     1       0.6085063505E-03       5    7    1         0.3357079669E-01      0.8222391711E-01
          0                 7           1             4    7     1      -0.2423026459E-04       4    6    1        -0.1374165362E-02      0.3365583855E-02

    ------------------------------------------------
       NWT REQUIRED            7 OUTER ITERATIONS 
       AND A TOTAL OF         13 INNER ITERATIONS.
    ------------------------------------------------

 NO OUTPUT CONTROL FOR STRESS PERIOD   44   TIME STEP    9
 
 SOLVING FOR HEAD 
                                                   Max.-Head-Change                         Max.-Flux-Residual
  Residual-Control   Outer-Iter.   Inner-Iter.     Column Row Layer    Maximum-Head-Change  Column Row Layer    Maximum-Flux-Residual          L2-NORM 
          0                 1           2             5    8     1       0.6763172469E-01       5    8    1         0.3694881065E+01      0.8245638740E+01
          0                 2           2             4    7     1      -0.1815545647E+00       5    8    1        -0.9935239108E+01      0.2413858206E+02
          0                 3           2             4    7     1      -0.2289336646E-02       4    7    1        -0.1231226911E+00      0.2838136313E+00
          0                 4           2             4    7     1      -0.1186444725E-01       5    8    1        -0.6376856335E+00      0.1560995987E+01
          0                 5           2             4    7     1      -0.8932122549E-02       4    7    1        -0.4793630817E+00      0.1174102818E+01
          0                 6           2             4    7     1       0.6085046071E-03       5    7    1         0.3357049647E-01      0.8222312260E-01
          0                 7           1             4    7     1      -0.2423019517E-04       4    6    1        -0.1374152298E-02      0.3365552081E-02

    ------------------------------------------------
       NWT REQUIRED            7 OUTER ITERATIONS 
       AND A TOTAL OF         13 INNER ITERATIONS.
    ------------------------------------------------

 NO OUTPUT CONTROL FOR STRESS PERIOD   44   TIME STEP   10
 
 SOLVING FOR HEAD 
                                                   Max.-Head-Change                         Max.-Flux-Residual
  Residual-Control   Outer-Iter.   Inner-Iter.     Column Row Layer    Maximum-Head-Change  Column Row Layer    Maximum-Flux-Residual          L2-NORM 
          0                 1           2             5    8     1       0.7059995522E-01       5    8    1         0.3856989033E+01      0.8626090965E+01
          0                 2           2             4    7     1      -0.1817128598E+00       5    8    1        -0.9951449500E+01      0.2417088972E+02
          0                 3           2             4    7     1      -0.2278302502E-02       4    7    1        -0.1225405879E+00      0.2817650956E+00
          0                 4           2             4    7     1      -0.1186525810E-01       5    8    1        -0.6377561743E+00      0.1561140018E+01
          0                 5           2             4    7     1      -0.8932096906E-02       4    7    1        -0.4793602345E+00      0.1174083971E+01
          0                 6           2             4    7     1       0.6085028603E-03       5    6    1         0.3357051929E-01      0.8222889173E-01
          0                 7           1             4    7     1      -0.2423012574E-04       5    6    1        -0.1374250430E-02      0.3366036150E-02

    ------------------------------------------------
       NWT REQUIRED            7 OUTER ITERATIONS 
       AND A TOTAL OF         13 INNER ITERATIONS.
    ------------------------------------------------

 NO OUTPUT CONTROL FOR STRESS PERIOD   44   TIME STEP   11
 
 SOLVING FOR HEAD 
                                                   Max.-Head-Change                         Max.-Flux-Residual
  Residual-Control   Outer-Iter.   Inner-Iter.     Column Row Layer    Maximum-Head-Change  Column Row Layer    Maximum-Flux-Residual          L2-NORM 
          0                 1           2             5    8     1       0.7342656956E-01       5    8    1         0.4011226188E+01      0.8992008382E+01
          0                 2           2             4    7     1      -0.1818728259E+00       5    8    1        -0.9966872811E+01      0.2420222495E+02
          0                 3           2             4    7     1      -0.2267152487E-02       4    7    1        -0.1219510451E+00      0.2797716870E+00
          0                 4           2             4    7     1      -0.1186607785E-01       5    8    1        -0.6378320684E+00      0.1561291584E+01
          0                 5           2             4    7     1      -0.8932071273E-02       4    7    1        -0.4793573507E+00      0.1174073373E+01
          0                 6           2             4    7     1       0.6085011137E-03       5    6    1         0.3357015764E-01      0.8222815158E-01
          0                 7           1             4    7     1      -0.2423005586E-04       5    6    1        -0.1374235683E-02      0.3366007258E-02

    ------------------------------------------------
       NWT REQUIRED            7 OUTER ITERATIONS 
       AND A TOTAL OF         13 INNER ITERATIONS.
    ------------------------------------------------

 NO OUTPUT CONTROL FOR STRESS PERIOD   44   TIME STEP   12
 
 SOLVING FOR HEAD 
                                                   Max.-Head-Change                         Max.-Flux-Residual
  Residual-Control   Outer-Iter.   Inner-Iter.     Column Row Layer    Maximum-Head-Change  Column Row Layer    Maximum-Flux-Residual          L2-NORM 
          0                 1           2             5    8     1       0.7612067164E-01       5    8    1         0.4158104363E+01      0.9344212333E+01
          0                 2           2             4    7     1      -0.1820341813E+00       5    8    1        -0.9981560225E+01      0.2423263603E+02
          0                 3           2             4    7     1      -0.2255906192E-02       4    7    1        -0.1213551757E+00      0.2778442009E+00
          0                 4           2             4    7     1      -0.1186690502E-01       5    8    1        -0.6379043330E+00      0.1561438641E+01
          0                 5           2             4    7     1      -0.8932045671E-02       4    7    1        -0.4793544357E+00      0.1174063091E+01
          0                 6           2             4    7     1       0.6084993694E-03       5    6    1         0.3356981211E-01      0.8222743287E-01
          0                 7           1             4    7     1      -0.2422998620E-04       5    6    1        -0.1374221576E-02      0.3365977010E-02

    ------------------------------------------------
       NWT REQUIRED            7 OUTER ITERATIONS 
       AND A TOTAL OF         13 INNER ITERATIONS.
    ------------------------------------------------

 NO OUTPUT CONTROL FOR STRESS PERIOD   44   TIME STEP   13
 
 SOLVING FOR HEAD 
                                                   Max.-Head-Change                         Max.-Flux-Residual
  Residual-Control   Outer-Iter.   Inner-Iter.     Column Row Layer    Maximum-Head-Change  Column Row Layer    Maximum-Flux-Residual          L2-NORM 
          0                 1           2             5    8     1       0.7869068913E-01       5    8    1         0.4298096092E+01      0.9683418127E+01
          0                 2           2             4    7     1      -0.1821965942E+00       5    8    1        -0.9995558997E+01      0.2426215342E+02
          0                 3           2             4    7     1      -0.2244586743E-02       4    7    1        -0.1207543173E+00      0.2759725918E+00
          0                 4           2             4    7     1      -0.1186773791E-01       5    8    1        -0.6379603847E+00      0.1561575725E+01
          0                 5           2             4    7     1      -0.8932020158E-02       4    7    1        -0.4793514961E+00      0.1174049806E+01
          0                 6           2             4    7     1       0.6084976317E-03       5    8    1         0.3356992868E-01      0.8222951132E-01
          0                 7           1             4    7     1      -0.2422991724E-04       5    8    1        -0.1374257345E-02      0.3366168461E-02

    ------------------------------------------------
       NWT REQUIRED            7 OUTER ITERATIONS 
       AND A TOTAL OF         13 INNER ITERATIONS.
    ------------------------------------------------

 NO OUTPUT CONTROL FOR STRESS PERIOD   44   TIME STEP   14
 
 SOLVING FOR HEAD 
                                                   Max.-Head-Change                         Max.-Flux-Residual
  Residual-Control   Outer-Iter.   Inner-Iter.     Column Row Layer    Maximum-Head-Change  Column Row Layer    Maximum-Flux-Residual          L2-NORM 
          0                 1           2             5    8     1       0.8114454986E-01       5    8    1         0.4431645748E+01      0.1001022696E+02
          0                 2           2             5    7     1      -0.1823647350E+00       5    8    1        -0.1000891356E+02      0.2429081605E+02
          0                 3           2             4    7     1      -0.2233210499E-02       4    7    1        -0.1201494099E+00      0.2741564404E+00
          0                 4           2             4    7     1      -0.1186857531E-01       5    8    1        -0.6380255323E+00      0.1561714081E+01
          0                 5           2             4    7     1      -0.8931994766E-02       4    7    1        -0.4793485365E+00      0.1174040142E+01
          0                 6           2             4    7     1       0.6084959017E-03       5    8    1         0.3356961105E-01      0.8222883548E-01
          0                 7           1             4    7     1      -0.2422984828E-04       5    8    1        -0.1374244384E-02      0.3366139240E-02

    ------------------------------------------------
       NWT REQUIRED            7 OUTER ITERATIONS 
       AND A TOTAL OF         13 INNER ITERATIONS.
    ------------------------------------------------

 NO OUTPUT CONTROL FOR STRESS PERIOD   44   TIME STEP   15
 
 SOLVING FOR HEAD 
                                                   Max.-Head-Change                         Max.-Flux-Residual
  Residual-Control   Outer-Iter.   Inner-Iter.     Column Row Layer    Maximum-Head-Change  Column Row Layer    Maximum-Flux-Residual          L2-NORM 
          0                 1           2             5    8     1       0.8348930342E-01       5    8    1         0.4559148876E+01      0.1032527862E+02
          0                 2           2             5    7     1      -0.1825689727E+00       5    8    1        -0.1002166348E+02      0.2431865791E+02
          0                 3           2             4    7     1      -0.2221797002E-02       4    7    1        -0.1195415761E+00      0.2723946023E+00
          0                 4           2             4    7     1      -0.1186941579E-01       5    8    1        -0.6380877366E+00      0.1561848490E+01
          0                 5           2             4    7     1      -0.8931969536E-02       4    7    1        -0.4793455624E+00      0.1174030753E+01
          0                 6           2             4    7     1       0.6084941828E-03       5    8    1         0.3356930768E-01      0.8222817884E-01
          0                 7           1             4    7     1      -0.2422978023E-04       5    8    1        -0.1374232000E-02      0.3366114388E-02

    ------------------------------------------------
       NWT REQUIRED            7 OUTER ITERATIONS 
       AND A TOTAL OF         13 INNER ITERATIONS.
    ------------------------------------------------

 NO OUTPUT CONTROL FOR STRESS PERIOD   44   TIME STEP   16
 
 SOLVING FOR HEAD 
                                                   Max.-Head-Change                         Max.-Flux-Residual
  Residual-Control   Outer-Iter.   Inner-Iter.     Column Row Layer    Maximum-Head-Change  Column Row Layer    Maximum-Flux-Residual          L2-NORM 
          0                 1           2             5    8     1       0.8573176383E-01       5    8    1         0.4680986617E+01      0.1062918142E+02
          0                 2           2             5    7     1      -0.1827687812E+00       5    8    1        -0.1003384687E+02      0.2434571296E+02
          0                 3           2             4    7     1      -0.2210360715E-02       4    7    1        -0.1189316545E+00      0.2706843496E+00
          0                 4           2             4    7     1      -0.1187025827E-01       5    8    1        -0.6381471831E+00      0.1561979120E+01
          0                 5           2             4    7     1      -0.8931944497E-02       4    7    1        -0.4793425780E+00      0.1174021629E+01
          0                 6           2             4    7     1       0.6084924769E-03       5    8    1         0.3356901769E-01      0.8222754048E-01
          0                 7           1             4    7     1      -0.2422971196E-04       5    8    1        -0.1374220171E-02      0.3366201781E-02

    ------------------------------------------------
       NWT REQUIRED            7 OUTER ITERATIONS 
       AND A TOTAL OF         13 INNER ITERATIONS.
    ------------------------------------------------

 NO OUTPUT CONTROL FOR STRESS PERIOD   44   TIME STEP   17
 
 SOLVING FOR HEAD 
                                                   Max.-Head-Change                         Max.-Flux-Residual
  Residual-Control   Outer-Iter.   Inner-Iter.     Column Row Layer    Maximum-Head-Change  Column Row Layer    Maximum-Flux-Residual          L2-NORM 
          0                 1           2             5    8     1       0.8787809809E-01       5    8    1         0.4797504497E+01      0.1092248932E+02
          0                 2           2             5    7     1      -0.1829642076E+00       5    8    1        -0.1004549828E+02      0.2437201109E+02
          0                 3           2             4    7     1      -0.2198918575E-02       4    7    1        -0.1183206191E+00      0.2690233198E+00
          0                 4           2             4    7     1      -0.1187110150E-01       5    8    1        -0.6382040398E+00      0.1562106116E+01
          0                 5           2             4    7     1      -0.8931919682E-02       4    7    1        -0.4793395879E+00      0.1174012757E+01
          0                 6           2             4    7     1       0.6084907866E-03       5    8    1         0.3356874025E-01      0.8222691965E-01
          0                 7           1             4    7     1      -0.2422964484E-04       5    8    1        -0.1374208831E-02      0.3366061006E-02

    ------------------------------------------------
       NWT REQUIRED            7 OUTER ITERATIONS 
       AND A TOTAL OF         13 INNER ITERATIONS.
    ------------------------------------------------

 NO OUTPUT CONTROL FOR STRESS PERIOD   44   TIME STEP   18
 
 SOLVING FOR HEAD 
                                                   Max.-Head-Change                         Max.-Flux-Residual
  Residual-Control   Outer-Iter.   Inner-Iter.     Column Row Layer    Maximum-Head-Change  Column Row Layer    Maximum-Flux-Residual          L2-NORM 
          0                 1           2             5    8     1       0.8993430404E-01       5    8    1         0.4909037843E+01      0.1120574938E+02
          0                 2           2             5    7     1      -0.1831553493E+00       5    8    1        -0.1005665123E+02      0.2439758628E+02
          0                 3           2             4    7     1      -0.2187482623E-02       4    7    1        -0.1177091704E+00      0.2674101867E+00
          0                 4           2             4    7     1      -0.1187194459E-01       5    8    1        -0.6382584595E+00      0.1562229629E+01
          0                 5           2             4    7     1      -0.8931895113E-02       4    7    1        -0.4793365957E+00      0.1174004129E+01
          0                 6           2             4    7     1       0.6084891125E-03       5    8    1         0.3356847362E-01      0.8222631535E-01
          0                 7           1             4    7     1      -0.2422957806E-04       5    8    1        -0.1374197901E-02      0.3366036175E-02

    ------------------------------------------------
       NWT REQUIRED            7 OUTER ITERATIONS 
       AND A TOTAL OF         13 INNER ITERATIONS.
    ------------------------------------------------

 NO OUTPUT CONTROL FOR STRESS PERIOD   44   TIME STEP   19
 
 SOLVING FOR HEAD 
                                                   Max.-Head-Change                         Max.-Flux-Residual
  Residual-Control   Outer-Iter.   Inner-Iter.     Column Row Layer    Maximum-Head-Change  Column Row Layer    Maximum-Flux-Residual          L2-NORM 
          0                 1           2             5    8     1       0.9190587094E-01       5    8    1         0.5015880241E+01      0.1147940208E+02
          0                 2           2             5    7     1      -0.1833422529E+00       5    8    1        -0.1006733511E+02      0.2442245905E+02
          0                 3           2             4    7     1      -0.2176067457E-02       4    7    1        -0.1170981528E+00      0.2658400701E+00
          0                 4           2             4    7     1      -0.1187278646E-01       5    8    1        -0.6383106159E+00      0.1562349801E+01
          0                 5           2             4    7     1      -0.8931870820E-02       4    7    1        -0.4793336055E+00      0.1173995733E+01
          0                 6           2             4    7     1       0.6084874574E-03       4    7    1         0.3356825810E-01      0.8222572709E-01
          0                 7           1             4    7     1      -0.2422951221E-04       5    8    1        -0.1374187353E-02      0.3366012060E-02

    ------------------------------------------------
       NWT REQUIRED            7 OUTER ITERATIONS 
       AND A TOTAL OF         13 INNER ITERATIONS.
    ------------------------------------------------

 NO OUTPUT CONTROL FOR STRESS PERIOD   44   TIME STEP   20
 
 SOLVING FOR HEAD 
                                                   Max.-Head-Change                         Max.-Flux-Residual
  Residual-Control   Outer-Iter.   Inner-Iter.     Column Row Layer    Maximum-Head-Change  Column Row Layer    Maximum-Flux-Residual          L2-NORM 
          0                 1           2             5    8     1       0.9379783838E-01       5    8    1         0.5118318215E+01      0.1174394617E+02
          0                 2           2             5    7     1      -0.1835250263E+00       5    8    1        -0.1007757855E+02      0.2444666235E+02
          0                 3           2             4    7     1      -0.2164682909E-02       4    7    1        -0.1164881425E+00      0.2643125432E+00
          0                 4           2             4    7     1      -0.1187362637E-01       5    8    1        -0.6383606260E+00      0.1562466764E+01
          0                 5           2             4    7     1      -0.8931846820E-02       4    7    1        -0.4793306201E+00      0.1173987561E+01
          0                 6           2             4    7     1       0.6084858227E-03       4    7    1         0.3356804919E-01      0.8222515499E-01
          0                 7           1             4    7     1      -0.2422944716E-04       5    8    1        -0.1374177378E-02      0.3365988669E-02

    ------------------------------------------------
       NWT REQUIRED            7 OUTER ITERATIONS 
       AND A TOTAL OF         13 INNER ITERATIONS.
    ------------------------------------------------

 NO OUTPUT CONTROL FOR STRESS PERIOD   44   TIME STEP   21
 
 SOLVING FOR HEAD 
                                                   Max.-Head-Change                         Max.-Flux-Residual
  Residual-Control   Outer-Iter.   Inner-Iter.     Column Row Layer    Maximum-Head-Change  Column Row Layer    Maximum-Flux-Residual          L2-NORM 
          0                 1           2             5    8     1       0.9561495622E-01       5    8    1         0.5216628579E+01      0.1199979600E+02
          0                 2           2             5    7     1      -0.1837037467E+00       5    8    1        -0.1008740924E+02      0.2447022158E+02
          0                 3           2             4    7     1      -0.2153341571E-02       4    7    1        -0.1158798660E+00      0.2628262459E+00
          0                 4           2             4    7     1      -0.1187446341E-01       5    8    1        -0.6384086219E+00      0.1562580636E+01
          0                 5           2             4    7     1      -0.8931823138E-02       4    7    1        -0.4793276430E+00      0.1173979604E+01
          0                 6           2             4    7     1       0.6084842092E-03       4    7    1         0.3356784085E-01      0.8222459793E-01
          0                 7           1             4    7     1      -0.2422938292E-04       5    8    1        -0.1374167799E-02      0.3365965860E-02

    ------------------------------------------------
       NWT REQUIRED            7 OUTER ITERATIONS 
       AND A TOTAL OF         13 INNER ITERATIONS.
    ------------------------------------------------

 NO OUTPUT CONTROL FOR STRESS PERIOD   44   TIME STEP   22
 
 SOLVING FOR HEAD 
                                                   Max.-Head-Change                         Max.-Flux-Residual
  Residual-Control   Outer-Iter.   Inner-Iter.     Column Row Layer    Maximum-Head-Change  Column Row Layer    Maximum-Flux-Residual          L2-NORM 
          0                 1           2             5    8     1       0.9736128864E-01       5    8    1         0.5311036119E+01      0.1224744391E+02
          0                 2           2             5    7     1      -0.1838784973E+00       5    8    1        -0.1009684965E+02      0.2449316106E+02
          0                 3           2             4    7     1      -0.2142052273E-02       4    7    1        -0.1152738427E+00      0.2613790209E+00
          0                 4           2             4    7     1      -0.1187529690E-01       5    8    1        -0.6384547172E+00      0.1562691539E+01
          0                 5           2             4    7     1      -0.8931799788E-02       4    7    1        -0.4793246769E+00      0.1173971854E+01
          0                 6           2             4    7     1       0.6084826186E-03       4    7    1         0.3356763327E-01      0.8222405531E-01
          0                 7           1             4    7     1      -0.2422931971E-04       5    8    1        -0.1374158603E-02      0.3365943645E-02

    ------------------------------------------------
       NWT REQUIRED            7 OUTER ITERATIONS 
       AND A TOTAL OF         13 INNER ITERATIONS.
    ------------------------------------------------

 NO OUTPUT CONTROL FOR STRESS PERIOD   44   TIME STEP   23
 
 SOLVING FOR HEAD 
                                                   Max.-Head-Change                         Max.-Flux-Residual
  Residual-Control   Outer-Iter.   Inner-Iter.     Column Row Layer    Maximum-Head-Change  Column Row Layer    Maximum-Flux-Residual          L2-NORM 
          0                 1           2             5    8     1       0.9904114152E-01       5    8    1         0.5401780846E+01      0.1248728743E+02
          0                 2           2             5    7     1      -0.1840493761E+00       5    8    1        -0.1010592379E+02      0.2451550509E+02
          0                 3           2             4    7     1      -0.2130823893E-02       4    7    1        -0.1146705942E+00      0.2599691569E+00
          0                 4           2             4    7     1      -0.1187612620E-01       5    8    1        -0.6384990287E+00      0.1562799591E+01
          0                 5           2             4    7     1      -0.8931776786E-02       4    7    1        -0.4793217242E+00      0.1173964303E+01
          0                 6           2             4    7     1       0.6084810516E-03       4    7    1         0.3356742663E-01      0.8222352651E-01
          0                 7           1             4    7     1      -0.2422925696E-04       5    8    1        -0.1374149741E-02      0.3365921998E-02

    ------------------------------------------------
       NWT REQUIRED            7 OUTER ITERATIONS 
       AND A TOTAL OF         13 INNER ITERATIONS.
    ------------------------------------------------

 NO OUTPUT CONTROL FOR STRESS PERIOD   44   TIME STEP   24
 
 SOLVING FOR HEAD 
                                                   Max.-Head-Change                         Max.-Flux-Residual
  Residual-Control   Outer-Iter.   Inner-Iter.     Column Row Layer    Maximum-Head-Change  Column Row Layer    Maximum-Flux-Residual          L2-NORM 
          0                 1           2             5    8     1       0.1006580998E+00       5    8    1         0.5489062710E+01      0.1271967841E+02
          0                 2           2             5    7     1      -0.1842164525E+00       5    8    1        -0.1011465165E+02      0.2453727382E+02
          0                 3           2             4    7     1      -0.2119665468E-02       4    7    1        -0.1140706444E+00      0.2585952641E+00
          0                 4           2             4    7     1      -0.1187695062E-01       5    8    1        -0.6385416538E+00      0.1562904889E+01
          0                 5           2             4    7     1      -0.8931754147E-02       4    7    1        -0.4793187876E+00      0.1173956944E+01
          0                 6           2             4    7     1       0.6084795092E-03       4    7    1         0.3356722110E-01      0.8222301110E-01
          0                 7           1             4    7     1      -0.2422919560E-04       5    8    1        -0.1374141218E-02      0.3365900884E-02

    ------------------------------------------------
       NWT REQUIRED            7 OUTER ITERATIONS 
       AND A TOTAL OF         13 INNER ITERATIONS.
    ------------------------------------------------

 NO OUTPUT CONTROL FOR STRESS PERIOD   44   TIME STEP   25
 
 SOLVING FOR HEAD 
                                                   Max.-Head-Change                         Max.-Flux-Residual
  Residual-Control   Outer-Iter.   Inner-Iter.     Column Row Layer    Maximum-Head-Change  Column Row Layer    Maximum-Flux-Residual          L2-NORM 
          0                 1           2             5    8     1       0.1022155096E+00       5    8    1         0.5573067605E+01      0.1294497732E+02
          0                 2           2             5    7     1      -0.1843876455E+00       5    8    1        -0.1012262883E+02      0.2455848866E+02
          0                 3           2             4    7     1      -0.2108577157E-02       4    7    1        -0.1134743711E+00      0.2572547184E+00
          0                 4           2             4    7     1      -0.1187777194E-01       5    8    1        -0.6385806102E+00      0.1563007544E+01
          0                 5           2             4    7     1      -0.8931733188E-02       4    7    1        -0.4793158689E+00      0.1173949770E+01
          0                 6           2             4    7     1       0.6084780816E-03       4    7    1         0.3356701682E-01      0.8222250849E-01
          0                 7           1             4    7     1      -0.2422913873E-04       5    8    1        -0.1374133431E-02      0.3365880298E-02

    ------------------------------------------------
       NWT REQUIRED            7 OUTER ITERATIONS 
       AND A TOTAL OF         13 INNER ITERATIONS.
    ------------------------------------------------

 NO OUTPUT CONTROL FOR STRESS PERIOD   44   TIME STEP   26
 
 SOLVING FOR HEAD 
                                                   Max.-Head-Change                         Max.-Flux-Residual
  Residual-Control   Outer-Iter.   Inner-Iter.     Column Row Layer    Maximum-Head-Change  Column Row Layer    Maximum-Flux-Residual          L2-NORM 
          0                 1           2             5    8     1       0.1037378583E+00       5    8    1         0.5654426932E+01      0.1316354343E+02
          0                 2           2             5    7     1      -0.1845393216E+00       5    8    1        -0.1013118827E+02      0.2457917510E+02
          0                 3           2             4    7     1      -0.2097588381E-02       4    7    1        -0.1128822683E+00      0.2559486036E+00
          0                 4           2             4    7     1      -0.1187858444E-01       5    8    1        -0.6386224289E+00      0.1563107651E+01
          0                 5           2             4    7     1      -0.8931711347E-02       4    7    1        -0.4793129705E+00      0.1173942773E+01
          0                 6           2             4    7     1       0.6084765995E-03       4    7    1         0.3356681395E-01      0.8222201402E-01
          0                 7           1             4    7     1      -0.2422907989E-04       5    8    1        -0.1374125073E-02      0.3365860813E-02

    ------------------------------------------------
       NWT REQUIRED            7 OUTER ITERATIONS 
       AND A TOTAL OF         13 INNER ITERATIONS.
    ------------------------------------------------

 NO OUTPUT CONTROL FOR STRESS PERIOD   44   TIME STEP   27
 
 SOLVING FOR HEAD 
                                                   Max.-Head-Change                         Max.-Flux-Residual
  Residual-Control   Outer-Iter.   Inner-Iter.     Column Row Layer    Maximum-Head-Change  Column Row Layer    Maximum-Flux-Residual          L2-NORM 
          0                 1           2             5    8     1       0.1051997625E+00       5    8    1         0.5733202056E+01      0.1337566474E+02
          0                 2           2             5    7     1      -0.1846942645E+00       5    8    1        -0.1013906548E+02      0.2459934543E+02
          0                 3           2             4    7     1      -0.2086682577E-02       4    7    1        -0.1122946614E+00      0.2546749266E+00
          0                 4           2             4    7     1      -0.1187939106E-01       5    8    1        -0.6386609129E+00      0.1563205294E+01
          0                 5           2             4    7     1      -0.8931689855E-02       4    7    1        -0.4793100940E+00      0.1173935949E+01
          0                 6           2             4    7     1       0.6084751294E-03       4    7    1         0.3356661262E-01      0.8222153947E-01
          0                 7           1             4    7     1      -0.2422902175E-04       5    8    1        -0.1374117352E-02      0.3365840552E-02

    ------------------------------------------------
       NWT REQUIRED            7 OUTER ITERATIONS 
       AND A TOTAL OF         13 INNER ITERATIONS.
    ------------------------------------------------

 NO OUTPUT CONTROL FOR STRESS PERIOD   44   TIME STEP   28
 
 SOLVING FOR HEAD 
                                                   Max.-Head-Change                         Max.-Flux-Residual
  Residual-Control   Outer-Iter.   Inner-Iter.     Column Row Layer    Maximum-Head-Change  Column Row Layer    Maximum-Flux-Residual          L2-NORM 
          0                 1           2             5    8     1       0.1066102216E+00       5    8    1         0.5809150699E+01      0.1358143974E+02
          0                 2           2             5    7     1      -0.1848458918E+00       5    8    1        -0.1014666003E+02      0.2461902012E+02
          0                 3           2             4    7     1      -0.2075873719E-02       4    7    1        -0.1117119589E+00      0.2534305908E+00
          0                 4           2             4    7     1      -0.1188019081E-01       5    8    1        -0.6386980202E+00      0.1563300570E+01
          0                 5           2             4    7     1      -0.8931668781E-02       4    7    1        -0.4793072415E+00      0.1173929289E+01
          0                 6           2             4    7     1       0.6084736935E-03       4    7    1         0.3356641294E-01      0.8222107275E-01
          0                 7           1             4    7     1      -0.2422896407E-04       5    8    1        -0.1374109912E-02      0.3365821439E-02

    ------------------------------------------------
       NWT REQUIRED            7 OUTER ITERATIONS 
       AND A TOTAL OF         13 INNER ITERATIONS.
    ------------------------------------------------

 NO OUTPUT CONTROL FOR STRESS PERIOD   44   TIME STEP   29
 
 SOLVING FOR HEAD 
                                                   Max.-Head-Change                         Max.-Flux-Residual
  Residual-Control   Outer-Iter.   Inner-Iter.     Column Row Layer    Maximum-Head-Change  Column Row Layer    Maximum-Flux-Residual          L2-NORM 
          0                 1           2             5    8     1       0.1079722404E+00       5    8    1         0.5882439331E+01      0.1378131648E+02
          0                 2           2             5    7     1      -0.1849942766E+00       5    8    1        -0.1015398860E+02      0.2463821818E+02
          0                 3           2             4    7     1      -0.2065166314E-02       4    7    1        -0.1111344281E+00      0.2522156099E+00
          0                 4           2             4    7     1      -0.1188098335E-01       5    8    1        -0.6387338317E+00      0.1563393563E+01
          0                 5           2             4    7     1      -0.8931648121E-02       4    7    1        -0.4793044141E+00      0.1173922788E+01
          0                 6           2             4    7     1       0.6084722861E-03       4    7    1         0.3356621504E-01      0.8222061708E-01
          0                 7           1             4    7     1      -0.2422890789E-04       5    8    1        -0.1374102747E-02      0.3365802748E-02

    ------------------------------------------------
       NWT REQUIRED            7 OUTER ITERATIONS 
       AND A TOTAL OF         13 INNER ITERATIONS.
    ------------------------------------------------

 NO OUTPUT CONTROL FOR STRESS PERIOD   44   TIME STEP   30



 STREAM LISTING     PERIOD     44   STEP       30

 LAYER ROW COL. STREAM  RCH.  FLOW INTO     FLOW TO   FLOW OUT OF   OVRLND.     DIRECT     STREAM       STREAM     STREAM     STREAM   STREAMBED  STREAMBED
                SEG.NO.  NO.  STRM. RCH.    AQUIFER    STRM. RCH.    RUNOFF     PRECIP       ET          HEAD       DEPTH      WIDTH   CONDCTNC.   GRADIENT

   1    1    1     1     1    1.9000E+01  2.1427E-01   1.8786E+01  0.000E+00  0.000E+00  0.000E+00  1.09413E+03  1.082E+00  1.166E+01  5.249E-02  1.361E+00
   1    2    2     1     2    1.8786E+01  3.3054E-01   1.8455E+01  0.000E+00  0.000E+00  0.000E+00  1.08914E+03  1.077E+00  1.158E+01  8.107E-02  1.359E+00
   1    3    3     1     3    1.8455E+01  2.8064E-01   1.8175E+01  0.000E+00  0.000E+00  0.000E+00  1.08349E+03  1.072E+00  1.149E+01  6.892E-02  1.357E+00
   1    3    4     1     4    1.8175E+01  2.5740E-01   1.7917E+01  0.000E+00  0.000E+00  0.000E+00  1.07848E+03  1.068E+00  1.140E+01  6.328E-02  1.356E+00
   1    4    5     2     1    1.5917E+01  3.0542E-01   1.5612E+01  0.000E+00  0.000E+00  0.000E+00  1.07285E+03  9.157E-01  1.200E+01  7.800E-02  1.305E+00
   1    5    6     2     2    1.5612E+01  2.3438E-01   1.5377E+01  0.000E+00  0.000E+00  0.000E+00  1.06742E+03  9.063E-01  1.200E+01  6.000E-02  1.302E+00
   1    6    6     2     3    1.5377E+01  2.3388E-01   1.5143E+01  0.000E+00  0.000E+00  0.000E+00  1.06269E+03  8.980E-01  1.200E+01  6.000E-02  1.299E+00
   1    7    6     2     4    1.5143E+01  2.3338E-01   1.4910E+01  0.000E+00  0.000E+00  0.000E+00  1.05797E+03  8.897E-01  1.200E+01  6.000E-02  1.297E+00
   1    8    6     2     5    1.4910E+01  2.3289E-01   1.4677E+01  0.000E+00  0.000E+00  0.000E+00  1.05324E+03  8.814E-01  1.200E+01  6.000E-02  1.294E+00
   1    3    5     3     1    2.0000E+00  2.8252E-01   1.7175E+00  0.000E+00  0.000E+00  0.000E+00  1.07555E+03  1.909E+00  9.636E+00  7.227E-02  1.955E+00
   1    3    6     3     2    1.7175E+00  2.4905E-01   1.4684E+00  0.000E+00  0.000E+00  0.000E+00  1.07264E+03  1.727E+00  8.909E+00  6.682E-02  1.864E+00
   1    3    7     3     3    1.4684E+00  1.9718E-01   1.2712E+00  0.000E+00  0.000E+00  0.000E+00  1.06987E+03  1.555E+00  8.218E+00  5.547E-02  1.777E+00
   1    4    8     3     4    1.2712E+00  2.2567E-01   1.0456E+00  0.000E+00  0.000E+00  0.000E+00  1.06682E+03  1.364E+00  7.455E+00  6.709E-02  1.682E+00
   1    5    8     3     5    1.0456E+00  1.5790E-01   8.8768E-01  0.000E+00  0.000E+00  0.000E+00  1.06362E+03  1.164E+00  6.655E+00  4.991E-02  1.582E+00
   1    6    8     3     6    8.8768E-01  5.5980E-02   8.3170E-01  0.000E+00  0.000E+00  0.000E+00  1.06158E+03  1.036E+00  6.145E+00  1.844E-02  1.518E+00
   1    5   10     4     1    1.0000E+01  9.0919E-02   9.9091E+00  0.000E+00  0.000E+00  0.000E+00  1.07836E+03  6.368E-01  1.000E+01  2.500E-02  1.212E+00
   1    5    9     4     2    9.9091E+00  1.8158E-01   9.7275E+00  0.000E+00  0.000E+00  0.000E+00  1.07154E+03  6.315E-01  1.000E+01  5.000E-02  1.211E+00
   1    6    8     4     3    9.7275E+00  1.2689E-01   9.6006E+00  0.000E+00  0.000E+00  0.000E+00  1.06381E+03  6.256E-01  1.000E+01  3.500E-02  1.209E+00
   1    6    8     5     1    1.0432E+01  2.2686E-01   1.0205E+01  0.000E+00  0.000E+00  0.000E+00  1.05868E+03  6.790E-01  1.542E+01  6.166E-02  1.226E+00
   1    7    7     5     2    1.0205E+01  2.7894E-01   9.9265E+00  0.000E+00  0.000E+00  0.000E+00  1.05417E+03  6.732E-01  1.519E+01  7.594E-02  1.224E+00
   1    8    7     5     3    9.9265E+00  1.9221E-01   9.7343E+00  0.000E+00  0.000E+00  0.000E+00  1.04992E+03  6.676E-01  1.497E+01  5.241E-02  1.223E+00
   1    8    6     5     4    9.7343E+00  1.3577E-01   9.5985E+00  0.000E+00  0.000E+00  0.000E+00  1.04691E+03  6.637E-01  1.482E+01  3.706E-02  1.221E+00
   1    9    6     6     1    2.4276E+01  2.5176E-01   2.4024E+01  0.000E+00  0.000E+00  0.000E+00  1.04392E+03  1.196E+00  1.200E+01  6.000E-02  1.399E+00
   1   10    7     6     2    2.4024E+01  2.5131E-01   2.3773E+01  0.000E+00  0.000E+00  0.000E+00  1.03937E+03  1.188E+00  1.200E+01  6.000E-02  1.396E+00
   1   11    7     6     3    2.3773E+01  2.5086E-01   2.3522E+01  0.000E+00  0.000E+00  0.000E+00  1.03482E+03  1.181E+00  1.200E+01  6.000E-02  1.394E+00
   1   12    7     6     4    2.3522E+01  2.5041E-01   2.3271E+01  0.000E+00  0.000E+00  0.000E+00  1.03026E+03  1.173E+00  1.200E+01  6.000E-02  1.391E+00
   1   13    7     6     5    2.3271E+01  1.1327E-02   2.3260E+01  0.000E+00  0.000E+00  0.000E+00  1.02708E+03  1.170E+00  1.200E+01  2.400E-02  1.573E-01
   1   14    9     7     1    1.5000E+02  1.3735E+00   1.4863E+02  0.000E+00  0.000E+00  0.000E+00  1.03987E+03  2.288E+00  5.529E+01  5.593E-01  8.186E-01
   1   13    8     7     2    1.4863E+02  1.9776E+00   1.4665E+02  0.000E+00  0.000E+00  0.000E+00  1.03478E+03  2.279E+00  5.525E+01  6.147E-01  1.072E+00
   1   13    7     7     3    1.4665E+02  1.7206E+00   1.4493E+02  0.000E+00  0.000E+00  0.000E+00  1.02969E+03  2.269E+00  5.521E+01  5.584E-01  1.027E+00
   1   13    6     8     1    1.6819E+02  1.1514E+00   1.6704E+02  0.000E+00  0.000E+00  0.000E+00  1.02481E+03  2.937E+00  4.258E+01  4.339E-01  8.845E-01
   1   13    5     8     2    1.6704E+02  3.8439E-01   1.6665E+02  0.000E+00  0.000E+00  0.000E+00  1.01856E+03  2.932E+00  4.251E+01  4.332E-01  2.958E-01
   1   13    4     8     3    1.6665E+02 -1.7453E+00   1.6840E+02  0.000E+00  0.000E+00  0.000E+00  1.01231E+03  2.936E+00  4.257E+01  4.338E+00 -1.341E-01
   1   13    3     8     4    1.6840E+02 -3.3048E+00   1.7170E+02  0.000E+00  0.000E+00  0.000E+00  1.00608E+03  2.953E+00  4.281E+01  4.363E+00 -2.525E-01
   1   13    2     8     5    1.7170E+02 -2.4891E+00   1.7419E+02  0.000E+00  0.000E+00  0.000E+00  9.99846E+02  2.971E+00  4.308E+01  4.390E+00 -1.890E-01
   1   13    1     8     6    1.7419E+02 -1.9590E+00   1.7615E+02  0.000E+00  0.000E+00  0.000E+00  9.94861E+02  2.986E+00  4.329E+01  2.647E+00 -2.467E-01





UNSATURATED ZONE PACKAGE VOLUMETRIC BUDGET FOR  TIME STEP    30 STRESS PERIOD   44
  ------------------------------------------------------------------------------



     CUMULATIVE VOLUMES      L**3       RATES FOR THIS TIME STEP      L**3/T
     ------------------                 ------------------------

           IN:                                      IN:
           ---                                      ---
        INFILTRATION =  1678464764.1319          INFILTRATION =          72.6628

          OUT:                                     OUT:
          ----                                     ----
              UZF ET =  1526663990.7785                UZF ET =          58.2420
        UZF RECHARGE =   113794615.5447          UZF RECHARGE =       0.0000E+00

            IN - OUT =    38006157.8087              IN - OUT =          14.4207

          STORAGE:                                 STORAGE:
          --------                                 --------
      STORAGE CHANGE =    38006160.3377        STORAGE CHANGE =          14.4207

 PERCENT DISCREPANCY IS DIFFERENCE BETWEEN IN-OUT MINUS CHANGE IN STORAGE
 DIVIDED BY THE AVERAGE OF IN AND OUT TIMES 100

 PERCENT DISCREPANCY =           0.00     PERCENT DISCREPANCY =           0.00






1
  VOLUMETRIC BUDGET FOR AGRICULTURAL FIELDS AT  END OF TIME STEP   30, STRESS PERIOD  44
  ------------------------------------------------------------------------------

     CUMULATIVE VOLUMES      L**3       RATES FOR THIS TIME STEP      L**3/T
     ------------------                 ------------------------

           IN:                                      IN:
           ---                                      ---
               AG WELLS  =  1582548992.0000                 AG WELLS  =          71.8153
      DIVERSION SEGMENTS =           0.0000        DIVERSION SEGMENTS =           0.0000
       IRRIGATION PONDS  =           0.0000         IRRIGATION PONDS  =           0.0000
           GW IRRIGATION =           0.0000             GW IRRIGATION =           0.0000
           SW IRRIGATION =           0.0000             SW IRRIGATION =           0.0000
        SYSTEM LOSSES GW =           0.0000          SYSTEM LOSSES GW =           0.0000
        SYSTEM LOSSES SW =           0.0000          SYSTEM LOSSES SW =           0.0000

                TOTAL IN =  1582548992.0000                  TOTAL IN =          71.8153

          OUT:                                     OUT:
          ----                                     ----
               AG WELLS  =           0.0000                 AG WELLS  =           0.0000
      DIVERSION SEGMENTS =           0.0000        DIVERSION SEGMENTS =           0.0000
       IRRIGATION PONDS  =           0.0000         IRRIGATION PONDS  =           0.0000
           GW IRRIGATION =  1582548992.0000             GW IRRIGATION =          71.8153
           SW IRRIGATION =           0.0000             SW IRRIGATION =           0.0000
        SYSTEM LOSSES GW =           0.0000          SYSTEM LOSSES GW =           0.0000
        SYSTEM LOSSES SW =           0.0000          SYSTEM LOSSES SW =           0.0000

               TOTAL OUT =  1582548992.0000                 TOTAL OUT =          71.8153

                IN - OUT =           0.0000                  IN - OUT =           0.0000

     PERCENT DISCREPANCY =           0.00         PERCENT DISCREPANCY =           0.00



1
  VOLUMETRIC BUDGET FOR ENTIRE MODEL AT END OF TIME STEP   30, STRESS PERIOD  44
  ------------------------------------------------------------------------------

     CUMULATIVE VOLUMES      L**3       RATES FOR THIS TIME STEP      L**3/T
     ------------------                 ------------------------

           IN:                                      IN:
           ---                                      ---
             STORAGE     =  2031502336.0000               STORAGE     =          68.9847
       CONSTANT HEAD     =           0.0000         CONSTANT HEAD     =           0.0000
     HEAD DEP BOUNDS     =    32387848.0000       HEAD DEP BOUNDS     =           0.2883
      STREAM LEAKAGE     =  1386475776.0000        STREAM LEAKAGE     =          12.3474
        UZF RECHARGE     =   113794720.0000          UZF RECHARGE     =           0.0000
               GW ET     =           0.0000                 GW ET     =           0.0000
     SURFACE LEAKAGE     =           0.0000       SURFACE LEAKAGE     =           0.0000
           AG WELLS      =           0.0000             AG WELLS      =           0.0000

                TOTAL IN =  3564160768.0000                  TOTAL IN =          81.6205

          OUT:                                     OUT:
          ----                                     ----
             STORAGE     =   783406080.0000               STORAGE     =       1.8118E-02
       CONSTANT HEAD     =           0.0000         CONSTANT HEAD     =           0.0000
     HEAD DEP BOUNDS     =    33031878.0000       HEAD DEP BOUNDS     =           0.2888
      STREAM LEAKAGE     =  1147573376.0000        STREAM LEAKAGE     =           9.4982
        UZF RECHARGE     =           0.0000          UZF RECHARGE     =           0.0000
               GW ET     =    17607784.0000                 GW ET     =           0.0000
     SURFACE LEAKAGE     =           0.0000       SURFACE LEAKAGE     =           0.0000
           AG WELLS      =  1582548992.0000             AG WELLS      =          71.8153

               TOTAL OUT =  3564168192.0000                 TOTAL OUT =          81.6204

                IN - OUT =       -7424.0000                  IN - OUT =       9.9182E-05

     PERCENT DISCREPANCY =          -0.00         PERCENT DISCREPANCY =           0.00






         TIME SUMMARY AT END OF TIME STEP   30 IN STRESS PERIOD   44
                    SECONDS     MINUTES      HOURS       DAYS        YEARS
                    -----------------------------------------------------------
   TIME STEP LENGTH  87667.      1461.1      24.352      1.0147     2.77799E-03
 STRESS PERIOD TIME 2.63000E+06  43833.      730.56      30.440     8.33397E-02
         TOTAL TIME 1.13175E+08 1.88626E+06  31438.      1309.9      3.5863    
1
1
                            STRESS PERIOD NO.   45, LENGTH =   2630000.    
                            -----------------------------------------------

                              NUMBER OF TIME STEPS =    30

                               MULTIPLIER FOR DELT =     1.000

                            INITIAL TIME STEP SIZE =   87666.66    

 REUSING NON-PARAMETER GHB CELLS FROM LAST STRESS PERIOD

      2 GHB CELLS

 REUSING STREAM SEGMENT DATA FROM LAST STRESS PERIOD



            AREAL INFILTRATION RATE
 READING ON UNIT   19 WITH FORMAT: (FREE)              

            1           2           3           4           5           6           7           8           9          10
 ........................................................................................................................
   1   1.0000E-10  2.0000E-10   0.000       0.000       0.000       0.000       0.000       0.000       0.000       0.000    
   2   2.0000E-10  1.0000E-10  2.0000E-10   0.000       0.000      8.0000E-10  8.0000E-10  5.0000E-10   0.000       0.000    
   3    0.000      5.0000E-10  1.0000E-10  1.0000E-10  8.0000E-10  8.0000E-10  5.0000E-10  5.0000E-10   0.000       0.000    
   4   8.0000E-10  5.0000E-10  1.0000E-10  1.0000E-10  1.0000E-10  1.0000E-10  1.0000E-10  1.0000E-10  2.0000E-10   0.000    
   5   8.0000E-10  5.0000E-10  1.0000E-10  1.0000E-10  1.0000E-10  1.0000E-10  1.0000E-10  1.0000E-10  1.0000E-10  1.0000E-10
   6   8.0000E-10  5.0000E-10  5.0000E-10  2.0000E-10  2.0000E-10  1.0000E-10  1.0000E-10  1.0000E-10  1.0000E-10  5.0000E-10
   7   8.0000E-10  5.0000E-10  5.0000E-10  2.0000E-10  2.0000E-10  1.0000E-10  1.0000E-10  2.0000E-10  2.0000E-10   0.000    
   8    0.000      5.0000E-10  5.0000E-10  2.0000E-10  2.0000E-10  1.0000E-10  1.0000E-10  2.0000E-10  5.0000E-10   0.000    
   9    0.000      5.0000E-10  5.0000E-10  2.0000E-10  2.0000E-10  1.0000E-10  1.0000E-10  2.0000E-10  5.0000E-10   0.000    
  10    0.000      5.0000E-10  5.0000E-10  2.0000E-10  2.0000E-10  1.0000E-10  1.0000E-10  2.0000E-10  5.0000E-10  8.0000E-10
  11    0.000      1.0000E-10  1.0000E-10  1.0000E-10  1.0000E-10  1.0000E-10  1.0000E-10  2.0000E-10  5.0000E-10   0.000    
  12   1.0000E-10  1.0000E-10  1.0000E-10  1.0000E-10  1.0000E-10  1.0000E-10  1.0000E-10  1.0000E-10  2.0000E-10   0.000    
  13   1.0000E-10  1.0000E-10  2.0000E-10  2.0000E-10  2.0000E-10  2.0000E-10  2.0000E-10  1.0000E-10  1.0000E-10   0.000    
  14    0.000      2.0000E-10  5.0000E-10  5.0000E-10  5.0000E-10  5.0000E-10  5.0000E-10  2.0000E-10  1.0000E-10   0.000    
  15    0.000       0.000      8.0000E-10  8.0000E-10  8.0000E-10  8.0000E-10   0.000       0.000       0.000       0.000    

                  ET RATE =  3.250000E-07

 USING ET EXTINCTION DEPTH FROM PREVIOUS STRESS PERIOD. CURRENT PERIOD IS:      45

 USING EXTINCTION WATER CONTENT FROM PREVIOUS STRESS PERIOD. CURRENT PERIOD IS:      45

 USING AIR ENTRY PRESSURE FROM PREVIOUS STRESS PERIOD. CURRENT PERIOD IS:      45

 USING ROOT PRESSURE HEAD FROM PREVIOUS STRESS PERIOD. CURRENT PERIOD IS:      45

 USING ROOT ACTIVITY FROM PREVIOUS STRESS PERIOD. CURRENT PERIOD IS:      45

 PROCESSING AG STRESS PERIOD DATA

 READING AG STRESS PERIOD DATA

 READING IRRIGATION WELL

 NO IRRPOND OR REUSING IRRPOND DATA FROM LAST STRESS PERIOD

 END PROCESSING AG STRESS PERIOD DATA OPTIONS
 
 SOLVING FOR HEAD 
                                                   Max.-Head-Change                         Max.-Flux-Residual
  Residual-Control   Outer-Iter.   Inner-Iter.     Column Row Layer    Maximum-Head-Change  Column Row Layer    Maximum-Flux-Residual          L2-NORM 
          0                 1           2             4    7     1      -0.7880646897E-01       4    7    1        -0.4157467211E+01      0.9599885138E+01
          0                 2           2             4    7     1       0.7634524900E-02       4    7    1         0.4137739402E+00      0.9597365686E+00
          0                 3           2             4    7     1      -0.5198843441E-03       4    7    1        -0.2896428708E-01      0.6718165088E-01
          0                 4           1             4    7     1       0.2068667823E-04       4    7    1         0.1184640554E-02      0.2747732785E-02

    ------------------------------------------------
       NWT REQUIRED            4 OUTER ITERATIONS 
       AND A TOTAL OF          7 INNER ITERATIONS.
    ------------------------------------------------

 NO OUTPUT CONTROL FOR STRESS PERIOD   45   TIME STEP    1
 
 SOLVING FOR HEAD 
                                                   Max.-Head-Change                         Max.-Flux-Residual
  Residual-Control   Outer-Iter.   Inner-Iter.     Column Row Layer    Maximum-Head-Change  Column Row Layer    Maximum-Flux-Residual          L2-NORM 
          0                 1           2             5    8     1       0.1165087302E+00       5    8    1         0.6336767038E+01      0.1486375042E+02
          0                 2           2             5    7     1      -0.1593030763E+00       5    8    1        -0.8753649928E+01      0.2122257343E+02
          0                 3           2             5    7     1       0.1084784182E-01       5    8    1         0.6127497151E+00      0.1485565154E+01
          0                 4           2             5    7     1      -0.4316462837E-03       5    8    1        -0.2506152631E-01      0.6075977194E-01
          0                 5           1             5    7     1       0.5322390974E-05       5    8    1         0.3176067503E-03      0.7700144609E-03

    ------------------------------------------------
       NWT REQUIRED            5 OUTER ITERATIONS 
       AND A TOTAL OF          9 INNER ITERATIONS.
    ------------------------------------------------

 NO OUTPUT CONTROL FOR STRESS PERIOD   45   TIME STEP    2
 
 SOLVING FOR HEAD 
                                                   Max.-Head-Change                         Max.-Flux-Residual
  Residual-Control   Outer-Iter.   Inner-Iter.     Column Row Layer    Maximum-Head-Change  Column Row Layer    Maximum-Flux-Residual          L2-NORM 
          0                 1           2             5    8     1       0.1157879179E+00       5    8    1         0.6295296030E+01      0.1483298143E+02
          0                 2           2             5    7     1      -0.1593393900E+00       5    8    1        -0.8749502865E+01      0.2122309965E+02
          0                 3           2             5    7     1       0.1085002279E-01       5    8    1         0.6124432358E+00      0.1485562238E+01
          0                 4           2             5    7     1      -0.4317330714E-03       5    8    1        -0.2504899114E-01      0.6075965292E-01
          0                 5           1             5    7     1       0.5323461276E-05       5    8    1         0.3174478757E-03      0.7700119591E-03

    ------------------------------------------------
       NWT REQUIRED            5 OUTER ITERATIONS 
       AND A TOTAL OF          9 INNER ITERATIONS.
    ------------------------------------------------

 NO OUTPUT CONTROL FOR STRESS PERIOD   45   TIME STEP    3
 
 SOLVING FOR HEAD 
                                                   Max.-Head-Change                         Max.-Flux-Residual
  Residual-Control   Outer-Iter.   Inner-Iter.     Column Row Layer    Maximum-Head-Change  Column Row Layer    Maximum-Flux-Residual          L2-NORM 
          0                 1           2             5    8     1       0.1151378463E+00       5    8    1         0.6257828022E+01      0.1480700928E+02
          0                 2           2             5    7     1      -0.1593741589E+00       5    8    1        -0.8745756100E+01      0.2122383635E+02
          0                 3           2             5    7     1       0.1085238954E-01       5    8    1         0.6121809875E+00      0.1485613871E+01
          0                 4           2             5    7     1      -0.4318272508E-03       5    8    1        -0.2503826506E-01      0.6076484829E-01
          0                 5           1             5    7     1       0.5324622757E-05       5    8    1         0.3173119458E-03      0.7700685241E-03

    ------------------------------------------------
       NWT REQUIRED            5 OUTER ITERATIONS 
       AND A TOTAL OF          9 INNER ITERATIONS.
    ------------------------------------------------

 NO OUTPUT CONTROL FOR STRESS PERIOD   45   TIME STEP    4
 
 SOLVING FOR HEAD 
                                                   Max.-Head-Change                         Max.-Flux-Residual
  Residual-Control   Outer-Iter.   Inner-Iter.     Column Row Layer    Maximum-Head-Change  Column Row Layer    Maximum-Flux-Residual          L2-NORM 
          0                 1           2             5    8     1       0.1145528769E+00       5    8    1         0.6224042697E+01      0.1478540800E+02
          0                 2           2             5    7     1      -0.1594075873E+00       5    8    1        -0.8742377603E+01      0.2122476677E+02
          0                 3           2             5    7     1       0.1085466506E-01       5    8    1         0.6119445156E+00      0.1485678827E+01
          0                 4           2             5    7     1      -0.4319178002E-03       5    8    1        -0.2502859324E-01      0.6076442197E-01
          0                 5           1             5    7     1       0.5325739209E-05       5    8    1         0.3171893745E-03      0.7700727581E-03

    ------------------------------------------------
       NWT REQUIRED            5 OUTER ITERATIONS 
       AND A TOTAL OF          9 INNER ITERATIONS.
    ------------------------------------------------

 NO OUTPUT CONTROL FOR STRESS PERIOD   45   TIME STEP    5
 
 SOLVING FOR HEAD 
                                                   Max.-Head-Change                         Max.-Flux-Residual
  Residual-Control   Outer-Iter.   Inner-Iter.     Column Row Layer    Maximum-Head-Change  Column Row Layer    Maximum-Flux-Residual          L2-NORM 
          0                 1           2             5    8     1       0.1140275907E+00       5    8    1         0.6193632729E+01      0.1476778545E+02
          0                 2           2             5    7     1      -0.1594398264E+00       5    8    1        -0.8739336639E+01      0.2122587392E+02
          0                 3           2             5    7     1       0.1085685966E-01       5    8    1         0.6117316691E+00      0.1485756277E+01
          0                 4           2             5    7     1      -0.4320051285E-03       5    8    1        -0.2501988771E-01      0.6076758990E-01
          0                 5           1             5    7     1       0.5326815672E-05       5    8    1         0.3170790451E-03      0.7701133444E-03

    ------------------------------------------------
       NWT REQUIRED            5 OUTER ITERATIONS 
       AND A TOTAL OF          9 INNER ITERATIONS.
    ------------------------------------------------

 NO OUTPUT CONTROL FOR STRESS PERIOD   45   TIME STEP    6
 
 SOLVING FOR HEAD 
                                                   Max.-Head-Change                         Max.-Flux-Residual
  Residual-Control   Outer-Iter.   Inner-Iter.     Column Row Layer    Maximum-Head-Change  Column Row Layer    Maximum-Flux-Residual          L2-NORM 
          0                 1           2             5    8     1       0.1135571723E+00       5    8    1         0.6166324908E+01      0.1475378959E+02
          0                 2           2             5    7     1      -0.1594710085E+00       5    8    1        -0.8736605890E+01      0.2122714319E+02
          0                 3           2             5    7     1       0.1085898234E-01       5    8    1         0.6115405357E+00      0.1485845077E+01
          0                 4           2             5    7     1      -0.4320895949E-03       5    8    1        -0.2501207025E-01      0.6077122205E-01
          0                 5           1             5    7     1       0.5327857074E-05       5    8    1         0.3169799734E-03      0.7701587285E-03

    ------------------------------------------------
       NWT REQUIRED            5 OUTER ITERATIONS 
       AND A TOTAL OF          9 INNER ITERATIONS.
    ------------------------------------------------

 NO OUTPUT CONTROL FOR STRESS PERIOD   45   TIME STEP    7
 
 SOLVING FOR HEAD 
                                                   Max.-Head-Change                         Max.-Flux-Residual
  Residual-Control   Outer-Iter.   Inner-Iter.     Column Row Layer    Maximum-Head-Change  Column Row Layer    Maximum-Flux-Residual          L2-NORM 
          0                 1           2             5    8     1       0.1131372184E+00       5    8    1         0.6141869577E+01      0.1474310410E+02
          0                 2           2             5    7     1      -0.1595012767E+00       5    8    1        -0.8734160388E+01      0.2122856061E+02
          0                 3           2             5    7     1       0.1086104284E-01       5    8    1         0.6113693678E+00      0.1485944250E+01
          0                 4           2             5    7     1      -0.4321715879E-03       5    8    1        -0.2500506938E-01      0.6077805253E-01
          0                 5           1             3   13     1       0.9651824843E-05       3   13    1         0.6035475053E-03      0.9786437855E-03

    ------------------------------------------------
       NWT REQUIRED            5 OUTER ITERATIONS 
       AND A TOTAL OF          9 INNER ITERATIONS.
    ------------------------------------------------

 NO OUTPUT CONTROL FOR STRESS PERIOD   45   TIME STEP    8
 
 SOLVING FOR HEAD 
                                                   Max.-Head-Change                         Max.-Flux-Residual
  Residual-Control   Outer-Iter.   Inner-Iter.     Column Row Layer    Maximum-Head-Change  Column Row Layer    Maximum-Flux-Residual          L2-NORM 
          0                 1           2             5    8     1       0.1127635661E+00       5    8    1         0.6120030687E+01      0.1473544900E+02
          0                 2           2             4    7     1      -0.1595605134E+00       5    8    1        -0.8731976529E+01      0.2123011423E+02
          0                 3           2             4    7     1       0.1086507234E-01       5    8    1         0.6112165134E+00      0.1486052959E+01
          0                 4           2             4    7     1      -0.4323319313E-03       5    8    1        -0.2499881755E-01      0.6077972478E-01
          0                 5           1             4    7     1       0.5330839133E-05       5    8    1         0.3168120379E-03      0.7702666653E-03

    ------------------------------------------------
       NWT REQUIRED            5 OUTER ITERATIONS 
       AND A TOTAL OF          9 INNER ITERATIONS.
    ------------------------------------------------

 NO OUTPUT CONTROL FOR STRESS PERIOD   45   TIME STEP    9
 
 SOLVING FOR HEAD 
                                                   Max.-Head-Change                         Max.-Flux-Residual
  Residual-Control   Outer-Iter.   Inner-Iter.     Column Row Layer    Maximum-Head-Change  Column Row Layer    Maximum-Flux-Residual          L2-NORM 
          0                 1           2             5    8     1       0.1124328212E+00       5    8    1         0.6100615653E+01      0.1473055643E+02
          0                 2           2             4    7     1      -0.1596426771E+00       5    8    1        -0.8730035055E+01      0.2123179223E+02
          0                 3           2             4    7     1       0.1087066640E-01       5    8    1         0.6110806245E+00      0.1486170376E+01
          0                 4           2             4    7     1      -0.4325545288E-03       5    8    1        -0.2499325963E-01      0.6078452737E-01
          0                 5           1             4    7     1       0.5333583832E-05       5    8    1         0.3167415903E-03      0.7703290038E-03

    ------------------------------------------------
       NWT REQUIRED            5 OUTER ITERATIONS 
       AND A TOTAL OF          9 INNER ITERATIONS.
    ------------------------------------------------

 NO OUTPUT CONTROL FOR STRESS PERIOD   45   TIME STEP   10
 
 SOLVING FOR HEAD 
                                                   Max.-Head-Change                         Max.-Flux-Residual
  Residual-Control   Outer-Iter.   Inner-Iter.     Column Row Layer    Maximum-Head-Change  Column Row Layer    Maximum-Flux-Residual          L2-NORM 
          0                 1           2             5    8     1       0.1121411849E+00       5    8    1         0.6083409734E+01      0.1472818831E+02
          0                 2           2             4    7     1      -0.1597220008E+00       5    8    1        -0.8728314492E+01      0.2123358358E+02
          0                 3           2             4    7     1       0.1087606711E-01       5    8    1         0.6109601981E+00      0.1486295729E+01
          0                 4           2             4    7     1      -0.4327694326E-03       5    8    1        -0.2498833412E-01      0.6078965453E-01
          0                 5           1             4    7     1       0.5336233879E-05       5    8    1         0.3166791680E-03      0.7703927498E-03

    ------------------------------------------------
       NWT REQUIRED            5 OUTER ITERATIONS 
       AND A TOTAL OF          9 INNER ITERATIONS.
    ------------------------------------------------

 NO OUTPUT CONTROL FOR STRESS PERIOD   45   TIME STEP   11
 
 SOLVING FOR HEAD 
                                                   Max.-Head-Change                         Max.-Flux-Residual
  Residual-Control   Outer-Iter.   Inner-Iter.     Column Row Layer    Maximum-Head-Change  Column Row Layer    Maximum-Flux-Residual          L2-NORM 
          0                 1           2             5    8     1       0.1118857232E+00       5    8    1         0.6068246993E+01      0.1472813019E+02
          0                 2           2             4    7     1      -0.1597986237E+00       5    8    1        -0.8726798246E+01      0.2123547786E+02
          0                 3           2             4    7     1       0.1088128394E-01       5    8    1         0.6108540726E+00      0.1486428290E+01
          0                 4           2             4    7     1      -0.4329770197E-03       5    8    1        -0.2498399354E-01      0.6079507649E-01
          0                 5           1             4    7     1       0.5338793642E-05       5    8    1         0.3166241595E-03      0.7704664024E-03

    ------------------------------------------------
       NWT REQUIRED            5 OUTER ITERATIONS 
       AND A TOTAL OF          9 INNER ITERATIONS.
    ------------------------------------------------

 NO OUTPUT CONTROL FOR STRESS PERIOD   45   TIME STEP   12
 
 SOLVING FOR HEAD 
                                                   Max.-Head-Change                         Max.-Flux-Residual
  Residual-Control   Outer-Iter.   Inner-Iter.     Column Row Layer    Maximum-Head-Change  Column Row Layer    Maximum-Flux-Residual          L2-NORM 
          0                 1           2             5    8     1       0.1116634802E+00       5    8    1         0.6054959795E+01      0.1473018030E+02
          0                 2           2             4    7     1      -0.1598726781E+00       5    8    1        -0.8725469553E+01      0.2123746622E+02
          0                 3           2             4    7     1       0.1088632592E-01       5    8    1         0.6107610747E+00      0.1486567437E+01
          0                 4           2             4    7     1      -0.4331776485E-03       5    8    1        -0.2498018985E-01      0.6080076776E-01
          0                 5           1             4    7     1       0.5341267266E-05       5    8    1         0.3165759504E-03      0.7705337918E-03

    ------------------------------------------------
       NWT REQUIRED            5 OUTER ITERATIONS 
       AND A TOTAL OF          9 INNER ITERATIONS.
    ------------------------------------------------

 NO OUTPUT CONTROL FOR STRESS PERIOD   45   TIME STEP   13
 
 SOLVING FOR HEAD 
                                                   Max.-Head-Change                         Max.-Flux-Residual
  Residual-Control   Outer-Iter.   Inner-Iter.     Column Row Layer    Maximum-Head-Change  Column Row Layer    Maximum-Flux-Residual          L2-NORM 
          0                 1           2             5    8     1       0.1114718791E+00       5    8    1         0.6043402649E+01      0.1473416163E+02
          0                 2           2             4    7     1      -0.1599442777E+00       5    8    1        -0.8724313865E+01      0.2123954034E+02
          0                 3           2             4    7     1       0.1089120076E-01       5    8    1         0.6106801862E+00      0.1486712589E+01
          0                 4           2             4    7     1      -0.4333716275E-03       5    8    1        -0.2497688145E-01      0.6080670465E-01
          0                 5           1             4    7     1       0.5343659119E-05       5    8    1         0.3165340245E-03      0.7706149983E-03

    ------------------------------------------------
       NWT REQUIRED            5 OUTER ITERATIONS 
       AND A TOTAL OF          9 INNER ITERATIONS.
    ------------------------------------------------

 NO OUTPUT CONTROL FOR STRESS PERIOD   45   TIME STEP   14
 
 SOLVING FOR HEAD 
                                                   Max.-Head-Change                         Max.-Flux-Residual
  Residual-Control   Outer-Iter.   Inner-Iter.     Column Row Layer    Maximum-Head-Change  Column Row Layer    Maximum-Flux-Residual          L2-NORM 
          0                 1           2             5    8     1       0.1113084231E+00       5    8    1         0.6033434195E+01      0.1473990646E+02
          0                 2           2             4    7     1      -0.1600135437E+00       5    8    1        -0.8723317045E+01      0.2124169229E+02
          0                 3           2             4    7     1       0.1089591673E-01       5    8    1         0.6106104175E+00      0.1486863190E+01
          0                 4           2             4    7     1      -0.4335592842E-03       5    8    1        -0.2497402788E-01      0.6081286445E-01
          0                 5           1             4    7     1       0.5345973233E-05       5    8    1         0.3164978725E-03      0.7706867516E-03

    ------------------------------------------------
       NWT REQUIRED            5 OUTER ITERATIONS 
       AND A TOTAL OF          9 INNER ITERATIONS.
    ------------------------------------------------

 NO OUTPUT CONTROL FOR STRESS PERIOD   45   TIME STEP   15
 
 SOLVING FOR HEAD 
                                                   Max.-Head-Change                         Max.-Flux-Residual
  Residual-Control   Outer-Iter.   Inner-Iter.     Column Row Layer    Maximum-Head-Change  Column Row Layer    Maximum-Flux-Residual          L2-NORM 
          0                 1           2             5    8     1       0.1111708127E+00       5    8    1         0.6024924985E+01      0.1474725827E+02
          0                 2           2             4    7     1      -0.1600805908E+00       5    8    1        -0.8722466150E+01      0.2124391379E+02
          0                 3           2             4    7     1       0.1090048164E-01       5    8    1         0.6105508626E+00      0.1487018661E+01
          0                 4           2             4    7     1      -0.4337409296E-03       5    8    1        -0.2497159205E-01      0.6081922332E-01
          0                 5           1             4    7     1       0.5348212970E-05       5    8    1         0.3164670056E-03      0.7707674884E-03

    ------------------------------------------------
       NWT REQUIRED            5 OUTER ITERATIONS 
       AND A TOTAL OF          9 INNER ITERATIONS.
    ------------------------------------------------

 NO OUTPUT CONTROL FOR STRESS PERIOD   45   TIME STEP   16
 
 SOLVING FOR HEAD 
                                                   Max.-Head-Change                         Max.-Flux-Residual
  Residual-Control   Outer-Iter.   Inner-Iter.     Column Row Layer    Maximum-Head-Change  Column Row Layer    Maximum-Flux-Residual          L2-NORM 
          0                 1           2             5    8     1       0.1110570820E+00       5    8    1         0.6017763549E+01      0.1475607887E+02
          0                 2           2             4    7     1      -0.1601455157E+00       5    8    1        -0.8721750031E+01      0.2124619876E+02
          0                 3           2             4    7     1       0.1090490207E-01       5    8    1         0.6105007413E+00      0.1487178577E+01
          0                 4           2             4    7     1      -0.4339168260E-03       5    8    1        -0.2496954204E-01      0.6082576404E-01
          0                 5           1             4    7     1       0.5350381577E-05       5    8    1         0.3164410105E-03      0.7708636305E-03

    ------------------------------------------------
       NWT REQUIRED            5 OUTER ITERATIONS 
       AND A TOTAL OF          9 INNER ITERATIONS.
    ------------------------------------------------

 NO OUTPUT CONTROL FOR STRESS PERIOD   45   TIME STEP   17
 
 SOLVING FOR HEAD 
                                                   Max.-Head-Change                         Max.-Flux-Residual
  Residual-Control   Outer-Iter.   Inner-Iter.     Column Row Layer    Maximum-Head-Change  Column Row Layer    Maximum-Flux-Residual          L2-NORM 
          0                 1           2             5    8     1       0.1109654259E+00       5    8    1         0.6011847957E+01      0.1476624609E+02
          0                 2           2             4    7     1      -0.1602084101E+00       5    8    1        -0.8721158497E+01      0.2124854082E+02
          0                 3           2             4    7     1       0.1090918427E-01       5    8    1         0.6104593401E+00      0.1487342489E+01
          0                 4           2             4    7     1      -0.4340872217E-03       5    8    1        -0.2496784873E-01      0.6083246819E-01
          0                 5           1             4    7     1       0.5352482639E-05       5    8    1         0.3164195659E-03      0.7709410197E-03

    ------------------------------------------------
       NWT REQUIRED            5 OUTER ITERATIONS 
       AND A TOTAL OF          9 INNER ITERATIONS.
    ------------------------------------------------

 NO OUTPUT CONTROL FOR STRESS PERIOD   45   TIME STEP   18
 
 SOLVING FOR HEAD 
                                                   Max.-Head-Change                         Max.-Flux-Residual
  Residual-Control   Outer-Iter.   Inner-Iter.     Column Row Layer    Maximum-Head-Change  Column Row Layer    Maximum-Flux-Residual          L2-NORM 
          0                 1           2             5    8     1       0.1108940488E+00       5    8    1         0.6007076869E+01      0.1477764886E+02
          0                 2           2             4    7     1      -0.1602694000E+00       5    8    1        -0.8720681413E+01      0.2125093515E+02
          0                 3           2             4    7     1       0.1091333680E-01       5    8    1         0.6104259498E+00      0.1487510062E+01
          0                 4           2             4    7     1      -0.4342524578E-03       5    8    1        -0.2496648303E-01      0.6083932209E-01
          0                 5           1             4    7     1       0.5354519965E-05       5    8    1         0.3164022473E-03      0.7710218544E-03

    ------------------------------------------------
       NWT REQUIRED            5 OUTER ITERATIONS 
       AND A TOTAL OF          9 INNER ITERATIONS.
    ------------------------------------------------

 NO OUTPUT CONTROL FOR STRESS PERIOD   45   TIME STEP   19
 
 SOLVING FOR HEAD 
                                                   Max.-Head-Change                         Max.-Flux-Residual
  Residual-Control   Outer-Iter.   Inner-Iter.     Column Row Layer    Maximum-Head-Change  Column Row Layer    Maximum-Flux-Residual          L2-NORM 
          0                 1           2             5    8     1       0.1108411578E+00       5    8    1         0.6003349446E+01      0.1479015723E+02
          0                 2           2             4    7     1      -0.1603285401E+00       5    8    1        -0.8720308694E+01      0.2125337385E+02
          0                 3           2             4    7     1       0.1091736339E-01       5    8    1         0.6103998645E+00      0.1487680741E+01
          0                 4           2             4    7     1      -0.4344126831E-03       5    8    1        -0.2496541611E-01      0.6084630315E-01
          0                 5           1             4    7     1       0.5356495571E-05       5    8    1         0.3163887359E-03      0.7711198207E-03

    ------------------------------------------------
       NWT REQUIRED            5 OUTER ITERATIONS 
       AND A TOTAL OF          9 INNER ITERATIONS.
    ------------------------------------------------

 NO OUTPUT CONTROL FOR STRESS PERIOD   45   TIME STEP   20
 
 SOLVING FOR HEAD 
                                                   Max.-Head-Change                         Max.-Flux-Residual
  Residual-Control   Outer-Iter.   Inner-Iter.     Column Row Layer    Maximum-Head-Change  Column Row Layer    Maximum-Flux-Residual          L2-NORM 
          0                 1           2             5    8     1       0.1108053779E+00       5    8    1         0.6000588230E+01      0.1480368649E+02
          0                 2           2             4    7     1      -0.1603859468E+00       5    8    1        -0.8720032597E+01      0.2125585358E+02
          0                 3           2             4    7     1       0.1092127198E-01       5    8    1         0.6103805421E+00      0.1487854294E+01
          0                 4           2             4    7     1      -0.4345682123E-03       5    8    1        -0.2496462580E-01      0.6085340146E-01
          0                 5           1             4    7     1       0.5358413601E-05       5    8    1         0.3163787037E-03      0.7712000647E-03

    ------------------------------------------------
       NWT REQUIRED            5 OUTER ITERATIONS 
       AND A TOTAL OF          9 INNER ITERATIONS.
    ------------------------------------------------

 NO OUTPUT CONTROL FOR STRESS PERIOD   45   TIME STEP   21
 
 SOLVING FOR HEAD 
                                                   Max.-Head-Change                         Max.-Flux-Residual
  Residual-Control   Outer-Iter.   Inner-Iter.     Column Row Layer    Maximum-Head-Change  Column Row Layer    Maximum-Flux-Residual          L2-NORM 
          0                 1           2             5    8     1       0.1107854516E+00       5    8    1         0.5998721922E+01      0.1481814959E+02
          0                 2           2             4    7     1      -0.1604416792E+00       5    8    1        -0.8719845989E+01      0.2125836971E+02
          0                 3           2             4    7     1       0.1092506658E-01       5    8    1         0.6103674834E+00      0.1488030395E+01
          0                 4           2             4    7     1      -0.4347192055E-03       5    8    1        -0.2496409168E-01      0.6086060410E-01
          0                 5           1             4    7     1       0.5360275287E-05       5    8    1         0.3163719462E-03      0.7712937367E-03

    ------------------------------------------------
       NWT REQUIRED            5 OUTER ITERATIONS 
       AND A TOTAL OF          9 INNER ITERATIONS.
    ------------------------------------------------

 NO OUTPUT CONTROL FOR STRESS PERIOD   45   TIME STEP   22
 
 SOLVING FOR HEAD 
                                                   Max.-Head-Change                         Max.-Flux-Residual
  Residual-Control   Outer-Iter.   Inner-Iter.     Column Row Layer    Maximum-Head-Change  Column Row Layer    Maximum-Flux-Residual          L2-NORM 
          0                 1           2             5    8     1       0.1107800818E+00       5    8    1         0.5997677581E+01      0.1483345857E+02
          0                 2           2             4    7     1      -0.1604958317E+00       5    8    1        -0.8719741579E+01      0.2126091777E+02
          0                 3           2             4    7     1       0.1092875362E-01       5    8    1         0.6103601780E+00      0.1488208732E+01
          0                 4           2             4    7     1      -0.4348659184E-03       5    8    1        -0.2496379289E-01      0.6086789823E-01
          0                 5           1             4    7     1       0.5362084439E-05       5    8    1         0.3163681567E-03      0.7713845946E-03

    ------------------------------------------------
       NWT REQUIRED            5 OUTER ITERATIONS 
       AND A TOTAL OF          9 INNER ITERATIONS.
    ------------------------------------------------

 NO OUTPUT CONTROL FOR STRESS PERIOD   45   TIME STEP   23
 
 SOLVING FOR HEAD 
                                                   Max.-Head-Change                         Max.-Flux-Residual
  Residual-Control   Outer-Iter.   Inner-Iter.     Column Row Layer    Maximum-Head-Change  Column Row Layer    Maximum-Flux-Residual          L2-NORM 
          0                 1           2             5    8     1       0.1107880704E+00       5    8    1         0.5997387956E+01      0.1484952876E+02
          0                 2           2             4    7     1      -0.1605484680E+00       5    8    1        -0.8719712639E+01      0.2126349306E+02
          0                 3           2             4    7     1       0.1093233744E-01       5    8    1         0.6103581552E+00      0.1488388977E+01
          0                 4           2             4    7     1      -0.4350085247E-03       5    8    1        -0.2496371013E-01      0.6087527035E-01
          0                 5           1             4    7     1       0.5363842848E-05       5    8    1         0.3163671245E-03      0.7714774737E-03

    ------------------------------------------------
       NWT REQUIRED            5 OUTER ITERATIONS 
       AND A TOTAL OF          9 INNER ITERATIONS.
    ------------------------------------------------

 NO OUTPUT CONTROL FOR STRESS PERIOD   45   TIME STEP   24
 
 SOLVING FOR HEAD 
                                                   Max.-Head-Change                         Max.-Flux-Residual
  Residual-Control   Outer-Iter.   Inner-Iter.     Column Row Layer    Maximum-Head-Change  Column Row Layer    Maximum-Flux-Residual          L2-NORM 
          0                 1           2             5    8     1       0.1108081777E+00       5    8    1         0.5997783193E+01      0.1486629334E+02
          0                 2           2             4    7     1      -0.1605996613E+00       5    8    1        -0.8719752186E+01      0.2126609218E+02
          0                 3           2             4    7     1       0.1093582301E-01       5    8    1         0.6103609259E+00      0.1488570890E+01
          0                 4           2             4    7     1      -0.4351472213E-03       5    8    1        -0.2496382346E-01      0.6088271077E-01
          0                 5           1             4    7     1       0.5365552866E-05       5    8    1         0.3163685437E-03      0.7715719866E-03

    ------------------------------------------------
       NWT REQUIRED            5 OUTER ITERATIONS 
       AND A TOTAL OF          9 INNER ITERATIONS.
    ------------------------------------------------

 NO OUTPUT CONTROL FOR STRESS PERIOD   45   TIME STEP   25
 
 SOLVING FOR HEAD 
                                                   Max.-Head-Change                         Max.-Flux-Residual
  Residual-Control   Outer-Iter.   Inner-Iter.     Column Row Layer    Maximum-Head-Change  Column Row Layer    Maximum-Flux-Residual          L2-NORM 
          0                 1           2             5    8     1       0.1108396782E+00       5    8    1         0.5998822243E+01      0.1488369209E+02
          0                 2           2             4    7     1      -0.1606494811E+00       5    8    1        -0.8719856114E+01      0.2126871250E+02
          0                 3           2             4    7     1       0.1093921507E-01       5    8    1         0.6103682030E+00      0.1488754287E+01
          0                 4           2             4    7     1      -0.4352821971E-03       5    8    1        -0.2496412107E-01      0.6089021189E-01
          0                 5           1             4    7     1       0.5367217295E-05       5    8    1         0.3163723200E-03      0.7716666466E-03

    ------------------------------------------------
       NWT REQUIRED            5 OUTER ITERATIONS 
       AND A TOTAL OF          9 INNER ITERATIONS.
    ------------------------------------------------

 NO OUTPUT CONTROL FOR STRESS PERIOD   45   TIME STEP   26
 
 SOLVING FOR HEAD 
                                                   Max.-Head-Change                         Max.-Flux-Residual
  Residual-Control   Outer-Iter.   Inner-Iter.     Column Row Layer    Maximum-Head-Change  Column Row Layer    Maximum-Flux-Residual          L2-NORM 
          0                 1           2             5    8     1       0.1108816268E+00       5    8    1         0.6000451994E+01      0.1490165802E+02
          0                 2           2             4    7     1      -0.1606979930E+00       5    8    1        -0.8720019112E+01      0.2127134987E+02
          0                 3           2             4    7     1       0.1094251809E-01       5    8    1         0.6103796146E+00      0.1488938880E+01
          0                 4           2             4    7     1      -0.4354136294E-03       5    8    1        -0.2496458779E-01      0.6089776181E-01
          0                 5           1             4    7     1       0.5368837926E-05       5    8    1         0.3163782249E-03      0.7717623458E-03

    ------------------------------------------------
       NWT REQUIRED            5 OUTER ITERATIONS 
       AND A TOTAL OF          9 INNER ITERATIONS.
    ------------------------------------------------

 NO OUTPUT CONTROL FOR STRESS PERIOD   45   TIME STEP   27
 
 SOLVING FOR HEAD 
                                                   Max.-Head-Change                         Max.-Flux-Residual
  Residual-Control   Outer-Iter.   Inner-Iter.     Column Row Layer    Maximum-Head-Change  Column Row Layer    Maximum-Flux-Residual          L2-NORM 
          0                 1           2             5    8     1       0.1109330094E+00       5    8    1         0.6002615718E+01      0.1492014015E+02
          0                 2           2             4    7     1      -0.1607452461E+00       5    8    1        -0.8720235507E+01      0.2127400201E+02
          0                 3           2             4    7     1       0.1094573541E-01       5    8    1         0.6103947637E+00      0.1489124506E+01
          0                 4           2             4    7     1      -0.4355416520E-03       5    8    1        -0.2496520738E-01      0.6090535404E-01
          0                 5           1             4    7     1       0.5370416775E-05       5    8    1         0.3163860752E-03      0.7718585625E-03

    ------------------------------------------------
       NWT REQUIRED            5 OUTER ITERATIONS 
       AND A TOTAL OF          9 INNER ITERATIONS.
    ------------------------------------------------

 NO OUTPUT CONTROL FOR STRESS PERIOD   45   TIME STEP   28
 
 SOLVING FOR HEAD 
                                                   Max.-Head-Change                         Max.-Flux-Residual
  Residual-Control   Outer-Iter.   Inner-Iter.     Column Row Layer    Maximum-Head-Change  Column Row Layer    Maximum-Flux-Residual          L2-NORM 
          0                 1           2             5    8     1       0.1109931717E+00       5    8    1         0.6005276317E+01      0.1493907987E+02
          0                 2           2             4    7     1      -0.1607913000E+00       5    8    1        -0.8720501590E+01      0.2127666514E+02
          0                 3           2             4    7     1       0.1094887109E-01       5    8    1         0.6104133906E+00      0.1489310902E+01
          0                 4           2             4    7     1      -0.4356664253E-03       5    8    1        -0.2496596922E-01      0.6091297773E-01
          0                 5           1             4    7     1       0.5371954962E-05       5    8    1         0.3163957304E-03      0.7719551434E-03

    ------------------------------------------------
       NWT REQUIRED            5 OUTER ITERATIONS 
       AND A TOTAL OF          9 INNER ITERATIONS.
    ------------------------------------------------

 NO OUTPUT CONTROL FOR STRESS PERIOD   45   TIME STEP   29
 
 SOLVING FOR HEAD 
                                                   Max.-Head-Change                         Max.-Flux-Residual
  Residual-Control   Outer-Iter.   Inner-Iter.     Column Row Layer    Maximum-Head-Change  Column Row Layer    Maximum-Flux-Residual          L2-NORM 
          0                 1           2             5    8     1       0.1110613711E+00       5    8    1         0.6008392124E+01      0.1495843151E+02
          0                 2           2             4    7     1      -0.1608362106E+00       5    8    1        -0.8720813193E+01      0.2127933763E+02
          0                 3           2             4    7     1       0.1095192892E-01       5    8    1         0.6104352036E+00      0.1489497954E+01
          0                 4           2             4    7     1      -0.4357881012E-03       5    8    1        -0.2496686138E-01      0.6092062830E-01
          0                 5           1             4    7     1       0.5373454953E-05       5    8    1         0.3164070554E-03      0.7720521318E-03

    ------------------------------------------------
       NWT REQUIRED            5 OUTER ITERATIONS 
       AND A TOTAL OF          9 INNER ITERATIONS.
    ------------------------------------------------

 NO OUTPUT CONTROL FOR STRESS PERIOD   45   TIME STEP   30



 STREAM LISTING     PERIOD     45   STEP       30

 LAYER ROW COL. STREAM  RCH.  FLOW INTO     FLOW TO   FLOW OUT OF   OVRLND.     DIRECT     STREAM       STREAM     STREAM     STREAM   STREAMBED  STREAMBED
                SEG.NO.  NO.  STRM. RCH.    AQUIFER    STRM. RCH.    RUNOFF     PRECIP       ET          HEAD       DEPTH      WIDTH   CONDCTNC.   GRADIENT

   1    1    1     1     1    1.9000E+01  2.1427E-01   1.8786E+01  0.000E+00  0.000E+00  0.000E+00  1.09413E+03  1.082E+00  1.166E+01  5.249E-02  1.361E+00
   1    2    2     1     2    1.8786E+01  3.3054E-01   1.8455E+01  0.000E+00  0.000E+00  0.000E+00  1.08914E+03  1.077E+00  1.158E+01  8.107E-02  1.359E+00
   1    3    3     1     3    1.8455E+01  2.8064E-01   1.8175E+01  0.000E+00  0.000E+00  0.000E+00  1.08349E+03  1.072E+00  1.149E+01  6.892E-02  1.357E+00
   1    3    4     1     4    1.8175E+01  2.5740E-01   1.7917E+01  0.000E+00  0.000E+00  0.000E+00  1.07848E+03  1.068E+00  1.140E+01  6.328E-02  1.356E+00
   1    4    5     2     1    1.5917E+01  3.0542E-01   1.5612E+01  0.000E+00  0.000E+00  0.000E+00  1.07285E+03  9.157E-01  1.200E+01  7.800E-02  1.305E+00
   1    5    6     2     2    1.5612E+01  2.3438E-01   1.5377E+01  0.000E+00  0.000E+00  0.000E+00  1.06742E+03  9.063E-01  1.200E+01  6.000E-02  1.302E+00
   1    6    6     2     3    1.5377E+01  2.3388E-01   1.5143E+01  0.000E+00  0.000E+00  0.000E+00  1.06269E+03  8.980E-01  1.200E+01  6.000E-02  1.299E+00
   1    7    6     2     4    1.5143E+01  2.3338E-01   1.4910E+01  0.000E+00  0.000E+00  0.000E+00  1.05797E+03  8.897E-01  1.200E+01  6.000E-02  1.297E+00
   1    8    6     2     5    1.4910E+01  2.3289E-01   1.4677E+01  0.000E+00  0.000E+00  0.000E+00  1.05324E+03  8.814E-01  1.200E+01  6.000E-02  1.294E+00
   1    3    5     3     1    2.0000E+00  2.8252E-01   1.7175E+00  0.000E+00  0.000E+00  0.000E+00  1.07555E+03  1.909E+00  9.636E+00  7.227E-02  1.955E+00
   1    3    6     3     2    1.7175E+00  2.4905E-01   1.4684E+00  0.000E+00  0.000E+00  0.000E+00  1.07264E+03  1.727E+00  8.909E+00  6.682E-02  1.864E+00
   1    3    7     3     3    1.4684E+00  1.9718E-01   1.2712E+00  0.000E+00  0.000E+00  0.000E+00  1.06987E+03  1.555E+00  8.218E+00  5.547E-02  1.777E+00
   1    4    8     3     4    1.2712E+00  2.2567E-01   1.0456E+00  0.000E+00  0.000E+00  0.000E+00  1.06682E+03  1.364E+00  7.455E+00  6.709E-02  1.682E+00
   1    5    8     3     5    1.0456E+00  1.5790E-01   8.8768E-01  0.000E+00  0.000E+00  0.000E+00  1.06362E+03  1.164E+00  6.655E+00  4.991E-02  1.582E+00
   1    6    8     3     6    8.8768E-01  5.5980E-02   8.3170E-01  0.000E+00  0.000E+00  0.000E+00  1.06158E+03  1.036E+00  6.145E+00  1.844E-02  1.518E+00
   1    5   10     4     1    1.0000E+01  9.0919E-02   9.9091E+00  0.000E+00  0.000E+00  0.000E+00  1.07836E+03  6.368E-01  1.000E+01  2.500E-02  1.212E+00
   1    5    9     4     2    9.9091E+00  1.8158E-01   9.7275E+00  0.000E+00  0.000E+00  0.000E+00  1.07154E+03  6.315E-01  1.000E+01  5.000E-02  1.211E+00
   1    6    8     4     3    9.7275E+00  1.2689E-01   9.6006E+00  0.000E+00  0.000E+00  0.000E+00  1.06381E+03  6.256E-01  1.000E+01  3.500E-02  1.209E+00
   1    6    8     5     1    1.0432E+01  2.2686E-01   1.0205E+01  0.000E+00  0.000E+00  0.000E+00  1.05868E+03  6.790E-01  1.542E+01  6.166E-02  1.226E+00
   1    7    7     5     2    1.0205E+01  2.7894E-01   9.9265E+00  0.000E+00  0.000E+00  0.000E+00  1.05417E+03  6.732E-01  1.519E+01  7.594E-02  1.224E+00
   1    8    7     5     3    9.9265E+00  1.9221E-01   9.7343E+00  0.000E+00  0.000E+00  0.000E+00  1.04992E+03  6.676E-01  1.497E+01  5.241E-02  1.223E+00
   1    8    6     5     4    9.7343E+00  1.3577E-01   9.5985E+00  0.000E+00  0.000E+00  0.000E+00  1.04691E+03  6.637E-01  1.482E+01  3.706E-02  1.221E+00
   1    9    6     6     1    2.4276E+01  2.5176E-01   2.4024E+01  0.000E+00  0.000E+00  0.000E+00  1.04392E+03  1.196E+00  1.200E+01  6.000E-02  1.399E+00
   1   10    7     6     2    2.4024E+01  2.5131E-01   2.3773E+01  0.000E+00  0.000E+00  0.000E+00  1.03937E+03  1.188E+00  1.200E+01  6.000E-02  1.396E+00
   1   11    7     6     3    2.3773E+01  2.5086E-01   2.3522E+01  0.000E+00  0.000E+00  0.000E+00  1.03482E+03  1.181E+00  1.200E+01  6.000E-02  1.394E+00
   1   12    7     6     4    2.3522E+01  2.5041E-01   2.3271E+01  0.000E+00  0.000E+00  0.000E+00  1.03026E+03  1.173E+00  1.200E+01  6.000E-02  1.391E+00
   1   13    7     6     5    2.3271E+01  1.1511E-02   2.3260E+01  0.000E+00  0.000E+00  0.000E+00  1.02708E+03  1.169E+00  1.200E+01  2.400E-02  1.599E-01
   1   14    9     7     1    1.5000E+02  1.3755E+00   1.4862E+02  0.000E+00  0.000E+00  0.000E+00  1.03987E+03  2.288E+00  5.529E+01  5.593E-01  8.198E-01
   1   13    8     7     2    1.4862E+02  1.9819E+00   1.4664E+02  0.000E+00  0.000E+00  0.000E+00  1.03478E+03  2.279E+00  5.525E+01  6.147E-01  1.075E+00
   1   13    7     7     3    1.4664E+02  1.7249E+00   1.4492E+02  0.000E+00  0.000E+00  0.000E+00  1.02969E+03  2.269E+00  5.521E+01  5.584E-01  1.030E+00
   1   13    6     8     1    1.6818E+02  1.1545E+00   1.6702E+02  0.000E+00  0.000E+00  0.000E+00  1.02481E+03  2.937E+00  4.258E+01  4.339E-01  8.869E-01
   1   13    5     8     2    1.6702E+02  3.8713E-01   1.6664E+02  0.000E+00  0.000E+00  0.000E+00  1.01856E+03  2.931E+00  4.251E+01  4.331E-01  2.979E-01
   1   13    4     8     3    1.6664E+02 -1.7355E+00   1.6837E+02  0.000E+00  0.000E+00  0.000E+00  1.01231E+03  2.936E+00  4.257E+01  4.338E+00 -1.334E-01
   1   13    3     8     4    1.6837E+02 -3.3011E+00   1.7167E+02  0.000E+00  0.000E+00  0.000E+00  1.00608E+03  2.952E+00  4.281E+01  4.362E+00 -2.522E-01
   1   13    2     8     5    1.7167E+02 -2.4874E+00   1.7416E+02  0.000E+00  0.000E+00  0.000E+00  9.99846E+02  2.971E+00  4.308E+01  4.390E+00 -1.889E-01
   1   13    1     8     6    1.7416E+02 -1.9582E+00   1.7612E+02  0.000E+00  0.000E+00  0.000E+00  9.94860E+02  2.985E+00  4.329E+01  2.647E+00 -2.466E-01





UNSATURATED ZONE PACKAGE VOLUMETRIC BUDGET FOR  TIME STEP    30 STRESS PERIOD   45
  ------------------------------------------------------------------------------



     CUMULATIVE VOLUMES      L**3       RATES FOR THIS TIME STEP      L**3/T
     ------------------                 ------------------------

           IN:                                      IN:
           ---                                      ---
        INFILTRATION =  1808829903.1333          INFILTRATION =          49.5675

          OUT:                                     OUT:
          ----                                     ----
              UZF ET =  1657026508.1550                UZF ET =          49.5675
        UZF RECHARGE =   113794615.5447          UZF RECHARGE =       0.0000E+00

            IN - OUT =    38008779.4337              IN - OUT =       0.0000E+00

          STORAGE:                                 STORAGE:
          --------                                 --------
      STORAGE CHANGE =    38008781.7884        STORAGE CHANGE =       7.3036E-13

 PERCENT DISCREPANCY IS DIFFERENCE BETWEEN IN-OUT MINUS CHANGE IN STORAGE
 DIVIDED BY THE AVERAGE OF IN AND OUT TIMES 100

 PERCENT DISCREPANCY =           0.00     PERCENT DISCREPANCY =           0.00






1
  VOLUMETRIC BUDGET FOR AGRICULTURAL FIELDS AT  END OF TIME STEP   30, STRESS PERIOD  45
  ------------------------------------------------------------------------------

     CUMULATIVE VOLUMES      L**3       RATES FOR THIS TIME STEP      L**3/T
     ------------------                 ------------------------

           IN:                                      IN:
           ---                                      ---
               AG WELLS  =  1710684800.0000                 AG WELLS  =          48.7200
      DIVERSION SEGMENTS =           0.0000        DIVERSION SEGMENTS =           0.0000
       IRRIGATION PONDS  =           0.0000         IRRIGATION PONDS  =           0.0000
           GW IRRIGATION =           0.0000             GW IRRIGATION =           0.0000
           SW IRRIGATION =           0.0000             SW IRRIGATION =           0.0000
        SYSTEM LOSSES GW =           0.0000          SYSTEM LOSSES GW =           0.0000
        SYSTEM LOSSES SW =           0.0000          SYSTEM LOSSES SW =           0.0000

                TOTAL IN =  1710684800.0000                  TOTAL IN =          48.7200

          OUT:                                     OUT:
          ----                                     ----
               AG WELLS  =           0.0000                 AG WELLS  =           0.0000
      DIVERSION SEGMENTS =           0.0000        DIVERSION SEGMENTS =           0.0000
       IRRIGATION PONDS  =           0.0000         IRRIGATION PONDS  =           0.0000
           GW IRRIGATION =  1710684800.0000             GW IRRIGATION =          48.7200
           SW IRRIGATION =           0.0000             SW IRRIGATION =           0.0000
        SYSTEM LOSSES GW =           0.0000          SYSTEM LOSSES GW =           0.0000
        SYSTEM LOSSES SW =           0.0000          SYSTEM LOSSES SW =           0.0000

               TOTAL OUT =  1710684800.0000                 TOTAL OUT =          48.7200

                IN - OUT =           0.0000                  IN - OUT =           0.0000

     PERCENT DISCREPANCY =           0.00         PERCENT DISCREPANCY =           0.00



1
  VOLUMETRIC BUDGET FOR ENTIRE MODEL AT END OF TIME STEP   30, STRESS PERIOD  45
  ------------------------------------------------------------------------------

     CUMULATIVE VOLUMES      L**3       RATES FOR THIS TIME STEP      L**3/T
     ------------------                 ------------------------

           IN:                                      IN:
           ---                                      ---
             STORAGE     =  2152149248.0000               STORAGE     =          45.8544
       CONSTANT HEAD     =           0.0000         CONSTANT HEAD     =           0.0000
     HEAD DEP BOUNDS     =    33146322.0000       HEAD DEP BOUNDS     =           0.2885
      STREAM LEAKAGE     =  1418971776.0000        STREAM LEAKAGE     =          12.3640
        UZF RECHARGE     =   113794720.0000          UZF RECHARGE     =           0.0000
               GW ET     =           0.0000                 GW ET     =           0.0000
     SURFACE LEAKAGE     =           0.0000       SURFACE LEAKAGE     =           0.0000
           AG WELLS      =           0.0000             AG WELLS      =           0.0000

                TOTAL IN =  3718062336.0000                  TOTAL IN =          58.5068

          OUT:                                     OUT:
          ----                                     ----
             STORAGE     =   783450432.0000               STORAGE     =       1.5884E-02
       CONSTANT HEAD     =           0.0000         CONSTANT HEAD     =           0.0000
     HEAD DEP BOUNDS     =    33791476.0000       HEAD DEP BOUNDS     =           0.2888
      STREAM LEAKAGE     =  1172534144.0000        STREAM LEAKAGE     =           9.4821
        UZF RECHARGE     =           0.0000          UZF RECHARGE     =           0.0000
               GW ET     =    17607784.0000                 GW ET     =           0.0000
     SURFACE LEAKAGE     =           0.0000       SURFACE LEAKAGE     =           0.0000
           AG WELLS      =  1710684800.0000             AG WELLS      =          48.7200

               TOTAL OUT =  3718068736.0000                 TOTAL OUT =          58.5068

                IN - OUT =       -6400.0000                  IN - OUT =       3.0518E-05

     PERCENT DISCREPANCY =          -0.00         PERCENT DISCREPANCY =           0.00






         TIME SUMMARY AT END OF TIME STEP   30 IN STRESS PERIOD   45
                    SECONDS     MINUTES      HOURS       DAYS        YEARS
                    -----------------------------------------------------------
   TIME STEP LENGTH  87667.      1461.1      24.352      1.0147     2.77799E-03
 STRESS PERIOD TIME 2.63000E+06  43833.      730.56      30.440     8.33397E-02
         TOTAL TIME 1.15805E+08 1.93009E+06  32168.      1340.3      3.6696    
1
1
                            STRESS PERIOD NO.   46, LENGTH =   2630000.    
                            -----------------------------------------------

                              NUMBER OF TIME STEPS =    30

                               MULTIPLIER FOR DELT =     1.000

                            INITIAL TIME STEP SIZE =   87666.66    

 REUSING NON-PARAMETER GHB CELLS FROM LAST STRESS PERIOD

      2 GHB CELLS

 REUSING STREAM SEGMENT DATA FROM LAST STRESS PERIOD



            AREAL INFILTRATION RATE
 READING ON UNIT   19 WITH FORMAT: (FREE)              

            1           2           3           4           5           6           7           8           9          10
 ........................................................................................................................
   1   1.0000E-10  2.0000E-10   0.000       0.000       0.000       0.000       0.000       0.000       0.000       0.000    
   2   2.0000E-10  1.0000E-10  2.0000E-10   0.000       0.000      8.0000E-10  8.0000E-10  5.0000E-10   0.000       0.000    
   3    0.000      5.0000E-10  1.0000E-10  1.0000E-10  8.0000E-10  8.0000E-10  5.0000E-10  5.0000E-10   0.000       0.000    
   4   8.0000E-10  5.0000E-10  1.0000E-10  1.0000E-10  1.0000E-10  1.0000E-10  1.0000E-10  1.0000E-10  2.0000E-10   0.000    
   5   8.0000E-10  5.0000E-10  1.0000E-10  1.0000E-10  1.0000E-10  1.0000E-10  1.0000E-10  1.0000E-10  1.0000E-10  1.0000E-10
   6   8.0000E-10  5.0000E-10  5.0000E-10  2.0000E-10  2.0000E-10  1.0000E-10  1.0000E-10  1.0000E-10  1.0000E-10  5.0000E-10
   7   8.0000E-10  5.0000E-10  5.0000E-10  2.0000E-10  2.0000E-10  1.0000E-10  1.0000E-10  2.0000E-10  2.0000E-10   0.000    
   8    0.000      5.0000E-10  5.0000E-10  2.0000E-10  2.0000E-10  1.0000E-10  1.0000E-10  2.0000E-10  5.0000E-10   0.000    
   9    0.000      5.0000E-10  5.0000E-10  2.0000E-10  2.0000E-10  1.0000E-10  1.0000E-10  2.0000E-10  5.0000E-10   0.000    
  10    0.000      5.0000E-10  5.0000E-10  2.0000E-10  2.0000E-10  1.0000E-10  1.0000E-10  2.0000E-10  5.0000E-10  8.0000E-10
  11    0.000      1.0000E-10  1.0000E-10  1.0000E-10  1.0000E-10  1.0000E-10  1.0000E-10  2.0000E-10  5.0000E-10   0.000    
  12   1.0000E-10  1.0000E-10  1.0000E-10  1.0000E-10  1.0000E-10  1.0000E-10  1.0000E-10  1.0000E-10  2.0000E-10   0.000    
  13   1.0000E-10  1.0000E-10  2.0000E-10  2.0000E-10  2.0000E-10  2.0000E-10  2.0000E-10  1.0000E-10  1.0000E-10   0.000    
  14    0.000      2.0000E-10  5.0000E-10  5.0000E-10  5.0000E-10  5.0000E-10  5.0000E-10  2.0000E-10  1.0000E-10   0.000    
  15    0.000       0.000      8.0000E-10  8.0000E-10  8.0000E-10  8.0000E-10   0.000       0.000       0.000       0.000    

                  ET RATE =  7.500000E-08

 USING ET EXTINCTION DEPTH FROM PREVIOUS STRESS PERIOD. CURRENT PERIOD IS:      46

 USING EXTINCTION WATER CONTENT FROM PREVIOUS STRESS PERIOD. CURRENT PERIOD IS:      46

 USING AIR ENTRY PRESSURE FROM PREVIOUS STRESS PERIOD. CURRENT PERIOD IS:      46

 USING ROOT PRESSURE HEAD FROM PREVIOUS STRESS PERIOD. CURRENT PERIOD IS:      46

 USING ROOT ACTIVITY FROM PREVIOUS STRESS PERIOD. CURRENT PERIOD IS:      46

 PROCESSING AG STRESS PERIOD DATA

 READING AG STRESS PERIOD DATA

 READING IRRIGATION WELL

 NO IRRPOND OR REUSING IRRPOND DATA FROM LAST STRESS PERIOD

 END PROCESSING AG STRESS PERIOD DATA OPTIONS
 
 SOLVING FOR HEAD 
                                                   Max.-Head-Change                         Max.-Flux-Residual
  Residual-Control   Outer-Iter.   Inner-Iter.     Column Row Layer    Maximum-Head-Change  Column Row Layer    Maximum-Flux-Residual          L2-NORM 
          0                 1           2             5    8     1       0.7612387913E-01       5    8    1         0.4136916827E+01      0.1087472635E+02
          0                 2           2             5    8     1      -0.7404657632E-02       5    8    1        -0.4136833433E+00      0.1087448313E+01
          0                 3           2             5    8     1       0.5042309286E-03       5    8    1         0.2895792659E-01      0.7612164427E-01
          0                 4           1             5    8     1      -0.2006381512E-04       5    8    1        -0.1184380464E-02      0.3113379489E-02

    ------------------------------------------------
       NWT REQUIRED            4 OUTER ITERATIONS 
       AND A TOTAL OF          7 INNER ITERATIONS.
    ------------------------------------------------

 NO OUTPUT CONTROL FOR STRESS PERIOD   46   TIME STEP    1
 
 SOLVING FOR HEAD 
                                                   Max.-Head-Change                         Max.-Flux-Residual
  Residual-Control   Outer-Iter.   Inner-Iter.     Column Row Layer    Maximum-Head-Change  Column Row Layer    Maximum-Flux-Residual          L2-NORM 
          0                 1           2             5    8     1       0.1078629091E+00       5    8    1         0.5830752497E+01      0.1465658809E+02
          0                 2           2             5    7     1      -0.4453405232E-01       5    8    1        -0.2446469145E+01      0.5948653826E+01
          0                 3           2             5    7     1       0.3032343581E-02       5    8    1         0.1712385707E+00      0.4163707648E+00
          0                 4           2             5    7     1      -0.1206598146E-03       5    8    1        -0.7003668033E-02      0.1702959056E-01
          0                 5           1             5    7     1       0.1487789115E-05       5    8    1         0.8875806498E-04      0.2158191530E-03

    ------------------------------------------------
       NWT REQUIRED            5 OUTER ITERATIONS 
       AND A TOTAL OF          9 INNER ITERATIONS.
    ------------------------------------------------

 NO OUTPUT CONTROL FOR STRESS PERIOD   46   TIME STEP    2
 
 SOLVING FOR HEAD 
                                                   Max.-Head-Change                         Max.-Flux-Residual
  Residual-Control   Outer-Iter.   Inner-Iter.     Column Row Layer    Maximum-Head-Change  Column Row Layer    Maximum-Flux-Residual          L2-NORM 
          0                 1           2             5    8     1       0.1047799240E+00       5    8    1         0.5660278797E+01      0.1435090284E+02
          0                 2           2             5    7     1      -0.4451188042E-01       5    8    1        -0.2436005100E+01      0.5938248164E+01
          0                 3           2             5    7     1       0.3030831126E-02       5    8    1         0.1705059666E+00      0.4156420144E+00
          0                 4           2             5    7     1      -0.1205996349E-03       5    8    1        -0.6973704490E-02      0.1699978489E-01
          0                 5           1             5    7     1       0.1487047240E-05       5    8    1         0.8837832638E-04      0.2154459559E-03

    ------------------------------------------------
       NWT REQUIRED            5 OUTER ITERATIONS 
       AND A TOTAL OF          9 INNER ITERATIONS.
    ------------------------------------------------

 NO OUTPUT CONTROL FOR STRESS PERIOD   46   TIME STEP    3
 
 SOLVING FOR HEAD 
                                                   Max.-Head-Change                         Max.-Flux-Residual
  Residual-Control   Outer-Iter.   Inner-Iter.     Column Row Layer    Maximum-Head-Change  Column Row Layer    Maximum-Flux-Residual          L2-NORM 
          0                 1           2             5    8     1       0.1018840976E+00       5    8    1         0.5500272643E+01      0.1406090620E+02
          0                 2           2             5    7     1      -0.4437060622E-01       5    8    1        -0.2420004924E+01      0.5912967600E+01
          0                 3           2             5    7     1       0.3021210477E-02       5    8    1         0.1693859537E+00      0.4138723224E+00
          0                 4           2             5    7     1      -0.1202168224E-03       5    8    1        -0.6927895902E-02      0.1692740593E-01
          0                 5           1             5    7     1       0.1482327159E-05       5    8    1         0.8779779182E-04      0.2145230415E-03

    ------------------------------------------------
       NWT REQUIRED            5 OUTER ITERATIONS 
       AND A TOTAL OF          9 INNER ITERATIONS.
    ------------------------------------------------

 NO OUTPUT CONTROL FOR STRESS PERIOD   46   TIME STEP    4
 
 SOLVING FOR HEAD 
                                                   Max.-Head-Change                         Max.-Flux-Residual
  Residual-Control   Outer-Iter.   Inner-Iter.     Column Row Layer    Maximum-Head-Change  Column Row Layer    Maximum-Flux-Residual          L2-NORM 
          0                 1           2             5    7     1       0.1001215307E+00       5    8    1         0.5349784362E+01      0.1378513274E+02
          0                 2           2             4    7     1      -0.4431069337E-01       5    8    1        -0.2404956507E+01      0.5888763868E+01
          0                 3           2             4    7     1       0.3017126560E-02       5    8    1         0.1683325636E+00      0.4121780132E+00
          0                 4           2             4    7     1      -0.1200543261E-03       5    8    1        -0.6884812177E-02      0.1685810771E-01
          0                 5           1             4    7     1       0.1480321870E-05       5    8    1         0.8725178532E-04      0.2136464323E-03

    ------------------------------------------------
       NWT REQUIRED            5 OUTER ITERATIONS 
       AND A TOTAL OF          9 INNER ITERATIONS.
    ------------------------------------------------

 NO OUTPUT CONTROL FOR STRESS PERIOD   46   TIME STEP    5
 
 SOLVING FOR HEAD 
                                                   Max.-Head-Change                         Max.-Flux-Residual
  Residual-Control   Outer-Iter.   Inner-Iter.     Column Row Layer    Maximum-Head-Change  Column Row Layer    Maximum-Flux-Residual          L2-NORM 
          0                 1           2             5    7     1       0.9871794457E-01       5    7    1         0.5230444161E+01      0.1352257853E+02
          0                 2           2             4    7     1      -0.4427494017E-01       5    7    1        -0.2393027801E+01      0.5865571863E+01
          0                 3           2             4    7     1       0.3014691412E-02       5    7    1         0.1674972392E+00      0.4105545283E+00
          0                 4           2             4    7     1      -0.1199574313E-03       5    7    1        -0.6850648822E-02      0.1679170711E-01
          0                 5           1             4    7     1       0.1479126783E-05       5    7    1         0.8681883082E-04      0.2128028575E-03

    ------------------------------------------------
       NWT REQUIRED            5 OUTER ITERATIONS 
       AND A TOTAL OF          9 INNER ITERATIONS.
    ------------------------------------------------

 NO OUTPUT CONTROL FOR STRESS PERIOD   46   TIME STEP    6
 
 SOLVING FOR HEAD 
                                                   Max.-Head-Change                         Max.-Flux-Residual
  Residual-Control   Outer-Iter.   Inner-Iter.     Column Row Layer    Maximum-Head-Change  Column Row Layer    Maximum-Flux-Residual          L2-NORM 
          0                 1           2             5    7     1       0.9734084191E-01       5    7    1         0.5157507386E+01      0.1327234221E+02
          0                 2           2             4    7     1      -0.4423527150E-01       5    7    1        -0.2385734722E+01      0.5843332013E+01
          0                 3           2             4    7     1       0.3011989674E-02       5    7    1         0.1669867045E+00      0.4089976979E+00
          0                 4           2             4    7     1      -0.1198499294E-03       5    7    1        -0.6829768010E-02      0.1672803478E-01
          0                 5           1             4    7     1       0.1477801536E-05       5    7    1         0.8655420743E-04      0.2119961162E-03

    ------------------------------------------------
       NWT REQUIRED            5 OUTER ITERATIONS 
       AND A TOTAL OF          9 INNER ITERATIONS.
    ------------------------------------------------

 NO OUTPUT CONTROL FOR STRESS PERIOD   46   TIME STEP    7
 
 SOLVING FOR HEAD 
                                                   Max.-Head-Change                         Max.-Flux-Residual
  Residual-Control   Outer-Iter.   Inner-Iter.     Column Row Layer    Maximum-Head-Change  Column Row Layer    Maximum-Flux-Residual          L2-NORM 
          0                 1           2             4    7     1       0.9605443690E-01       5    7    1         0.5085927714E+01      0.1303356576E+02
          0                 2           2             4    7     1      -0.4419201980E-01       5    7    1        -0.2378577282E+01      0.5821986603E+01
          0                 3           2             4    7     1       0.3009043980E-02       5    7    1         0.1664856664E+00      0.4075034808E+00
          0                 4           2             4    7     1      -0.1197327192E-03       5    7    1        -0.6809275616E-02      0.1666691932E-01
          0                 5           1             4    7     1       0.1476356208E-05       5    7    1         0.8629451304E-04      0.2112217963E-03

    ------------------------------------------------
       NWT REQUIRED            5 OUTER ITERATIONS 
       AND A TOTAL OF          9 INNER ITERATIONS.
    ------------------------------------------------

 NO OUTPUT CONTROL FOR STRESS PERIOD   46   TIME STEP    8
 
 SOLVING FOR HEAD 
                                                   Max.-Head-Change                         Max.-Flux-Residual
  Residual-Control   Outer-Iter.   Inner-Iter.     Column Row Layer    Maximum-Head-Change  Column Row Layer    Maximum-Flux-Residual          L2-NORM 
          0                 1           2             4    7     1       0.9557615480E-01       5    7    1         0.5015770886E+01      0.1280550714E+02
          0                 2           2             4    7     1      -0.4414549944E-01       5    7    1        -0.2371562062E+01      0.5801487141E+01
          0                 3           2             4    7     1       0.3005875736E-02       5    7    1         0.1659945856E+00      0.4060684836E+00
          0                 4           2             4    7     1      -0.1196066537E-03       5    7    1        -0.6789190450E-02      0.1660822867E-01
          0                 5           1             4    7     1       0.1474801779E-05       5    7    1         0.8603995366E-04      0.2105047792E-03

    ------------------------------------------------
       NWT REQUIRED            5 OUTER ITERATIONS 
       AND A TOTAL OF          9 INNER ITERATIONS.
    ------------------------------------------------

 NO OUTPUT CONTROL FOR STRESS PERIOD   46   TIME STEP    9
 
 SOLVING FOR HEAD 
                                                   Max.-Head-Change                         Max.-Flux-Residual
  Residual-Control   Outer-Iter.   Inner-Iter.     Column Row Layer    Maximum-Head-Change  Column Row Layer    Maximum-Flux-Residual          L2-NORM 
          0                 1           2             4    7     1       0.9506747202E-01       4    7    1         0.4974408579E+01      0.1258744319E+02
          0                 2           2             4    7     1      -0.4409601820E-01       4    7    1        -0.2367428291E+01      0.5781784079E+01
          0                 3           2             4    7     1       0.3002505898E-02       4    7    1         0.1657050941E+00      0.4046892364E+00
          0                 4           2             4    7     1      -0.1194725663E-03       4    7    1        -0.6777350822E-02      0.1655181664E-01
          0                 5           1             4    7     1       0.1473148664E-05       4    7    1         0.8588991659E-04      0.2097693534E-03

    ------------------------------------------------
       NWT REQUIRED            5 OUTER ITERATIONS 
       AND A TOTAL OF          9 INNER ITERATIONS.
    ------------------------------------------------

 NO OUTPUT CONTROL FOR STRESS PERIOD   46   TIME STEP   10
 
 SOLVING FOR HEAD 
                                                   Max.-Head-Change                         Max.-Flux-Residual
  Residual-Control   Outer-Iter.   Inner-Iter.     Column Row Layer    Maximum-Head-Change  Column Row Layer    Maximum-Flux-Residual          L2-NORM 
          0                 1           2             4    7     1       0.9453122841E-01       4    7    1         0.4947977035E+01      0.1237873539E+02
          0                 2           2             4    7     1      -0.4404385260E-01       4    7    1        -0.2364785611E+01      0.5762833955E+01
          0                 3           2             4    7     1       0.2998953296E-02       4    7    1         0.1655200857E+00      0.4033626978E+00
          0                 4           2             4    7     1      -0.1193312067E-03       4    7    1        -0.6769784063E-02      0.1649756159E-01
          0                 5           1             4    7     1       0.1471405825E-05       4    7    1         0.8579403720E-04      0.2090761176E-03

    ------------------------------------------------
       NWT REQUIRED            5 OUTER ITERATIONS 
       AND A TOTAL OF          9 INNER ITERATIONS.
    ------------------------------------------------

 NO OUTPUT CONTROL FOR STRESS PERIOD   46   TIME STEP   11
 
 SOLVING FOR HEAD 
                                                   Max.-Head-Change                         Max.-Flux-Residual
  Residual-Control   Outer-Iter.   Inner-Iter.     Column Row Layer    Maximum-Head-Change  Column Row Layer    Maximum-Flux-Residual          L2-NORM 
          0                 1           2             4    7     1       0.9397022658E-01       4    7    1         0.4920116645E+01      0.1217879814E+02
          0                 2           2             4    7     1      -0.4398927554E-01       4    7    1        -0.2361999998E+01      0.5744597036E+01
          0                 3           2             4    7     1       0.2995236510E-02       4    7    1         0.1653250737E+00      0.4020860856E+00
          0                 4           2             4    7     1      -0.1191833132E-03       4    7    1        -0.6761808147E-02      0.1644534809E-01
          0                 5           1             4    7     1       0.1469581439E-05       4    7    1         0.8569293050E-04      0.2084136066E-03

    ------------------------------------------------
       NWT REQUIRED            5 OUTER ITERATIONS 
       AND A TOTAL OF          9 INNER ITERATIONS.
    ------------------------------------------------

 NO OUTPUT CONTROL FOR STRESS PERIOD   46   TIME STEP   12
 
 SOLVING FOR HEAD 
                                                   Max.-Head-Change                         Max.-Flux-Residual
  Residual-Control   Outer-Iter.   Inner-Iter.     Column Row Layer    Maximum-Head-Change  Column Row Layer    Maximum-Flux-Residual          L2-NORM 
          0                 1           2             4    7     1       0.9338722520E-01       4    7    1         0.4890979899E+01      0.1198707923E+02
          0                 2           2             4    7     1      -0.4393255563E-01       4    7    1        -0.2359086704E+01      0.5727034818E+01
          0                 3           2             4    7     1       0.2991373830E-02       4    7    1         0.1651211259E+00      0.4008567052E+00
          0                 4           2             4    7     1      -0.1190296153E-03       4    7    1        -0.6753466771E-02      0.1639506654E-01
          0                 5           1             4    7     1       0.1467686484E-05       4    7    1         0.8558722448E-04      0.2077760777E-03

    ------------------------------------------------
       NWT REQUIRED            5 OUTER ITERATIONS 
       AND A TOTAL OF          9 INNER ITERATIONS.
    ------------------------------------------------

 NO OUTPUT CONTROL FOR STRESS PERIOD   46   TIME STEP   13
 
 SOLVING FOR HEAD 
                                                   Max.-Head-Change                         Max.-Flux-Residual
  Residual-Control   Outer-Iter.   Inner-Iter.     Column Row Layer    Maximum-Head-Change  Column Row Layer    Maximum-Flux-Residual          L2-NORM 
          0                 1           2             4    7     1       0.9278427720E-01       4    7    1         0.4860681044E+01      0.1180307248E+02
          0                 2           2             4    7     1      -0.4387389278E-01       4    7    1        -0.2356057158E+01      0.5710111705E+01
          0                 3           2             4    7     1       0.2987378866E-02       4    7    1         0.1649090419E+00      0.3996720627E+00
          0                 4           2             4    7     1      -0.1188706530E-03       4    7    1        -0.6744792579E-02      0.1634661476E-01
          0                 5           1             4    7     1       0.1465726785E-05       4    7    1         0.8547730704E-04      0.2071621282E-03

    ------------------------------------------------
       NWT REQUIRED            5 OUTER ITERATIONS 
       AND A TOTAL OF          9 INNER ITERATIONS.
    ------------------------------------------------

 NO OUTPUT CONTROL FOR STRESS PERIOD   46   TIME STEP   14
 
 SOLVING FOR HEAD 
                                                   Max.-Head-Change                         Max.-Flux-Residual
  Residual-Control   Outer-Iter.   Inner-Iter.     Column Row Layer    Maximum-Head-Change  Column Row Layer    Maximum-Flux-Residual          L2-NORM 
          0                 1           2             4    7     1       0.9216383290E-01       4    7    1         0.4829355285E+01      0.1162632123E+02
          0                 2           2             4    7     1      -0.4381352557E-01       4    7    1        -0.2352924883E+01      0.5693795568E+01
          0                 3           2             4    7     1       0.2983267866E-02       4    7    1         0.1646897685E+00      0.3985299103E+00
          0                 4           2             4    7     1      -0.1187070735E-03       4    7    1        -0.6735824349E-02      0.1629990057E-01
          0                 5           1             4    7     1       0.1463709622E-05       4    7    1         0.8536365249E-04      0.2065707758E-03

    ------------------------------------------------
       NWT REQUIRED            5 OUTER ITERATIONS 
       AND A TOTAL OF          9 INNER ITERATIONS.
    ------------------------------------------------

 NO OUTPUT CONTROL FOR STRESS PERIOD   46   TIME STEP   15
 
 SOLVING FOR HEAD 
                                                   Max.-Head-Change                         Max.-Flux-Residual
  Residual-Control   Outer-Iter.   Inner-Iter.     Column Row Layer    Maximum-Head-Change  Column Row Layer    Maximum-Flux-Residual          L2-NORM 
          0                 1           2             5    8     1       0.1210652712E+00       5    8    1         0.6562196906E+01      0.1252906661E+02
          0                 2           2             5    8     1      -0.4573781819E-01       5    8    1        -0.2525876094E+01      0.5778668299E+01
          0                 3           2             5    8     1       0.3112070764E-02       5    8    1         0.1766656488E+00      0.4044139474E+00
          0                 4           2             5    8     1      -0.1236842115E-03       5    8    1        -0.7216766324E-02      0.1653668428E-01
          0                 5           1             5    8     1       0.1519354223E-05       5    8    1         0.9110599967E-04      0.2094189746E-03

    ------------------------------------------------
       NWT REQUIRED            5 OUTER ITERATIONS 
       AND A TOTAL OF          9 INNER ITERATIONS.
    ------------------------------------------------

 NO OUTPUT CONTROL FOR STRESS PERIOD   46   TIME STEP   16
 
 SOLVING FOR HEAD 
                                                   Max.-Head-Change                         Max.-Flux-Residual
  Residual-Control   Outer-Iter.   Inner-Iter.     Column Row Layer    Maximum-Head-Change  Column Row Layer    Maximum-Flux-Residual          L2-NORM 
          0                 1           2             5    8     1       0.1172647626E+00       5    8    1         0.6351153939E+01      0.1231645823E+02
          0                 2           2             5    8     1      -0.4536824549E-01       5    8    1        -0.2504781127E+01      0.5760240395E+01
          0                 3           2             5    8     1       0.3086923040E-02       5    8    1         0.1751901034E+00      0.4031247251E+00
          0                 4           2             5    8     1      -0.1226847538E-03       5    8    1        -0.7156487890E-02      0.1648400605E-01
          0                 5           1             5    8     1       0.1507076837E-05       5    8    1         0.9034493632E-04      0.2087517455E-03

    ------------------------------------------------
       NWT REQUIRED            5 OUTER ITERATIONS 
       AND A TOTAL OF          9 INNER ITERATIONS.
    ------------------------------------------------

 NO OUTPUT CONTROL FOR STRESS PERIOD   46   TIME STEP   17
 
 SOLVING FOR HEAD 
                                                   Max.-Head-Change                         Max.-Flux-Residual
  Residual-Control   Outer-Iter.   Inner-Iter.     Column Row Layer    Maximum-Head-Change  Column Row Layer    Maximum-Flux-Residual          L2-NORM 
          0                 1           2             5    8     1       0.1136212893E+00       5    8    1         0.6149005534E+01      0.1211243187E+02
          0                 2           2             4    7     1      -0.4363212722E-01       4    7    1        -0.2343291087E+01      0.5655892734E+01
          0                 3           2             4    7     1       0.2969453161E-02       4    7    1         0.1640153848E+00      0.3654871146E+00
          0                 4           2             4    7     1      -0.1181573952E-03       4    7    1        -0.6708242635E-02      0.1517769008E-01
          0                 5           1             5    8     1      -0.2046674373E-05       5    8    1        -0.1252305283E-03      0.2268398952E-03

    ------------------------------------------------
       NWT REQUIRED            5 OUTER ITERATIONS 
       AND A TOTAL OF          9 INNER ITERATIONS.
    ------------------------------------------------

 NO OUTPUT CONTROL FOR STRESS PERIOD   46   TIME STEP   18
 
 SOLVING FOR HEAD 
                                                   Max.-Head-Change                         Max.-Flux-Residual
  Residual-Control   Outer-Iter.   Inner-Iter.     Column Row Layer    Maximum-Head-Change  Column Row Layer    Maximum-Flux-Residual          L2-NORM 
          0                 1           2             5    8     1       0.1102065790E+00       5    8    1         0.5959688957E+01      0.1191860680E+02
          0                 2           2             4    7     1      -0.4356292097E-01       4    7    1        -0.2340097135E+01      0.5254512060E+01
          0                 3           2             5    8     1      -0.4825989139E-02       5    8    1        -0.2785296411E+00      0.4564858801E+00
          0                 4           2             5    8     1      -0.1291074146E-02       5    8    1        -0.7302366978E-01      0.7452762519E-01
          0                 5           1             5    8     1      -0.3453856833E-03       5    8    1        -0.1958921787E-01      0.1958983575E-01
          0                 6           1             5    8     1      -0.9239453941E-04       5    8    1        -0.5239628305E-02      0.5239694876E-02

    ------------------------------------------------
       NWT REQUIRED            6 OUTER ITERATIONS 
       AND A TOTAL OF         10 INNER ITERATIONS.
    ------------------------------------------------

 NO OUTPUT CONTROL FOR STRESS PERIOD   46   TIME STEP   19
 
 SOLVING FOR HEAD 
                                                   Max.-Head-Change                         Max.-Flux-Residual
  Residual-Control   Outer-Iter.   Inner-Iter.     Column Row Layer    Maximum-Head-Change  Column Row Layer    Maximum-Flux-Residual          L2-NORM 
          0                 1           2             5    8     1       0.1059212651E+00       5    8    1         0.5721668861E+01      0.1171465600E+02
          0                 2           2             4    7     1      -0.4350569490E-01       4    7    1        -0.2336947163E+01      0.5270239810E+01
          0                 3           2             4    7     1       0.2962303975E-02       4    7    1         0.1635712592E+00      0.3688695806E+00
          0                 4           2             4    7     1      -0.1178728804E-03       4    7    1        -0.6690077583E-02      0.1508599069E-01
          0                 5           1             4    7     1       0.1453422515E-05       4    7    1         0.8478390419E-04      0.1911549477E-03

    ------------------------------------------------
       NWT REQUIRED            5 OUTER ITERATIONS 
       AND A TOTAL OF          9 INNER ITERATIONS.
    ------------------------------------------------

 NO OUTPUT CONTROL FOR STRESS PERIOD   46   TIME STEP   20
 
 SOLVING FOR HEAD 
                                                   Max.-Head-Change                         Max.-Flux-Residual
  Residual-Control   Outer-Iter.   Inner-Iter.     Column Row Layer    Maximum-Head-Change  Column Row Layer    Maximum-Flux-Residual          L2-NORM 
          0                 1           2             5    8     1       0.1015757117E+00       5    8    1         0.5480321584E+01      0.1151638083E+02
          0                 2           2             5    8     1      -0.4384256229E-01       5    8    1        -0.2417736644E+01      0.5689840229E+01
          0                 3           2             5    8     1       0.2983107453E-02       5    8    1         0.1690947952E+00      0.3981956650E+00
          0                 4           2             5    8     1      -0.1185587639E-03       5    8    1        -0.6906830386E-02      0.1628229900E-01
          0                 5           1             5    8     1       0.1456392700E-05       5    8    1         0.8714841306E-04      0.2062126509E-03

    ------------------------------------------------
       NWT REQUIRED            5 OUTER ITERATIONS 
       AND A TOTAL OF          9 INNER ITERATIONS.
    ------------------------------------------------

 NO OUTPUT CONTROL FOR STRESS PERIOD   46   TIME STEP   21
 
 SOLVING FOR HEAD 
                                                   Max.-Head-Change                         Max.-Flux-Residual
  Residual-Control   Outer-Iter.   Inner-Iter.     Column Row Layer    Maximum-Head-Change  Column Row Layer    Maximum-Flux-Residual          L2-NORM 
          0                 1           2             5    8     1       0.9892296133E-01       5    8    1         0.5333759446E+01      0.1135211998E+02
          0                 2           2             5    8     1      -0.4358461188E-01       5    8    1        -0.2403087238E+01      0.5674826726E+01
          0                 3           2             5    8     1       0.2965555031E-02       5    8    1         0.1680682533E+00      0.3971445417E+00
          0                 4           2             5    8     1      -0.1178611705E-03       5    8    1        -0.6864715493E-02      0.1623932498E-01
          0                 5           1             4    7     1       0.1449885199E-05       5    8    1         0.8660451749E-04      0.2056761244E-03

    ------------------------------------------------
       NWT REQUIRED            5 OUTER ITERATIONS 
       AND A TOTAL OF          9 INNER ITERATIONS.
    ------------------------------------------------

 NO OUTPUT CONTROL FOR STRESS PERIOD   46   TIME STEP   22
 
 SOLVING FOR HEAD 
                                                   Max.-Head-Change                         Max.-Flux-Residual
  Residual-Control   Outer-Iter.   Inner-Iter.     Column Row Layer    Maximum-Head-Change  Column Row Layer    Maximum-Flux-Residual          L2-NORM 
          0                 1           2             5    8     1       0.9642604147E-01       5    8    1         0.5195909556E+01      0.1119478833E+02
          0                 2           2             5    8     1      -0.4334181542E-01       5    8    1        -0.2389308692E+01      0.5660358148E+01
          0                 3           2             4    7     1       0.2951104350E-02       5    8    1         0.1671017681E+00      0.3961309921E+00
          0                 4           2             4    7     1      -0.1174272005E-03       5    8    1        -0.6824971564E-02      0.1619784246E-01
          0                 5           1             4    7     1       0.1447925947E-05       5    8    1         0.8608499093E-04      0.2051632127E-03

    ------------------------------------------------
       NWT REQUIRED            5 OUTER ITERATIONS 
       AND A TOTAL OF          9 INNER ITERATIONS.
    ------------------------------------------------

 NO OUTPUT CONTROL FOR STRESS PERIOD   46   TIME STEP   23
 
 SOLVING FOR HEAD 
                                                   Max.-Head-Change                         Max.-Flux-Residual
  Residual-Control   Outer-Iter.   Inner-Iter.     Column Row Layer    Maximum-Head-Change  Column Row Layer    Maximum-Flux-Residual          L2-NORM 
          0                 1           2             5    8     1       0.9407412993E-01       5    8    1         0.5066162313E+01      0.1104391391E+02
          0                 2           2             4    7     1      -0.4328246062E-01       5    8    1        -0.2376340068E+01      0.5646405701E+01
          0                 3           2             4    7     1       0.2947103107E-02       5    8    1         0.1661916094E+00      0.3951535076E+00
          0                 4           2             4    7     1      -0.1172679879E-03       5    8    1        -0.6787496303E-02      0.1615784158E-01
          0                 5           1             4    7     1       0.1445962999E-05       5    8    1         0.8559185881E-04      0.2046748443E-03

    ------------------------------------------------
       NWT REQUIRED            5 OUTER ITERATIONS 
       AND A TOTAL OF          9 INNER ITERATIONS.
    ------------------------------------------------

 NO OUTPUT CONTROL FOR STRESS PERIOD   46   TIME STEP   24
 
 SOLVING FOR HEAD 
                                                   Max.-Head-Change                         Max.-Flux-Residual
  Residual-Control   Outer-Iter.   Inner-Iter.     Column Row Layer    Maximum-Head-Change  Column Row Layer    Maximum-Flux-Residual          L2-NORM 
          0                 1           2             5    8     1       0.9185712375E-01       5    8    1         0.4943948864E+01      0.1089905996E+02
          0                 2           2             4    7     1      -0.4322360357E-01       5    8    1        -0.2364124501E+01      0.5632941869E+01
          0                 3           2             4    7     1       0.2943095101E-02       5    8    1         0.1653343713E+00      0.3942105626E+00
          0                 4           2             4    7     1      -0.1171085062E-03       5    8    1        -0.6752206818E-02      0.1611929658E-01
          0                 5           1             4    7     1       0.1443996467E-05       5    8    1         0.8512794921E-04      0.2042107103E-03

    ------------------------------------------------
       NWT REQUIRED            5 OUTER ITERATIONS 
       AND A TOTAL OF          9 INNER ITERATIONS.
    ------------------------------------------------

 NO OUTPUT CONTROL FOR STRESS PERIOD   46   TIME STEP   25
 
 SOLVING FOR HEAD 
                                                   Max.-Head-Change                         Max.-Flux-Residual
  Residual-Control   Outer-Iter.   Inner-Iter.     Column Row Layer    Maximum-Head-Change  Column Row Layer    Maximum-Flux-Residual          L2-NORM 
          0                 1           2             4    8     1       0.1242629012E+00       4    8    1         0.6620947096E+01      0.1190667556E+02
          0                 2           2             4    7     1      -0.4311819353E-01       5    8    1        -0.2352600856E+01      0.5536792568E+01
          0                 3           2             4    8     1      -0.5407364934E-02       4    8    1        -0.3060014884E+00      0.4717848306E+00
          0                 4           2             4    8     1       0.3680064010E-03       4    8    1         0.2128326391E-01      0.2591835854E-01
          0                 5           1             4    8     1      -0.1462906416E-04       4    8    1        -0.8647103682E-03      0.8864415532E-03

    ------------------------------------------------
       NWT REQUIRED            5 OUTER ITERATIONS 
       AND A TOTAL OF          9 INNER ITERATIONS.
    ------------------------------------------------

 NO OUTPUT CONTROL FOR STRESS PERIOD   46   TIME STEP   26
 
 SOLVING FOR HEAD 
                                                   Max.-Head-Change                         Max.-Flux-Residual
  Residual-Control   Outer-Iter.   Inner-Iter.     Column Row Layer    Maximum-Head-Change  Column Row Layer    Maximum-Flux-Residual          L2-NORM 
          0                 1           2             5    7     1       0.1234648779E+00       5    7    1         0.6620385165E+01      0.1280778125E+02
          0                 2           2             5    7     1      -0.4648239673E-01       5    7    1        -0.2531698369E+01      0.5263863047E+01
          0                 3           2             5    7     1       0.3161169986E-02       5    7    1         0.1770682832E+00      0.4065747576E+00
          0                 4           2             4    8     1      -0.8440427870E-03       4    8    1        -0.4688659013E-01      0.4923627570E-01
          0                 5           2             4    8     1      -0.2306474191E-03       4    8    1        -0.1286380934E-01      0.1286484991E-01
          0                 6           1             4    8     1      -0.6302628997E-04       4    8    1        -0.3514474092E-02      0.3514509789E-02

    ------------------------------------------------
       NWT REQUIRED            6 OUTER ITERATIONS 
       AND A TOTAL OF         11 INNER ITERATIONS.
    ------------------------------------------------

 NO OUTPUT CONTROL FOR STRESS PERIOD   46   TIME STEP   27
 
 SOLVING FOR HEAD 
                                                   Max.-Head-Change                         Max.-Flux-Residual
  Residual-Control   Outer-Iter.   Inner-Iter.     Column Row Layer    Maximum-Head-Change  Column Row Layer    Maximum-Flux-Residual          L2-NORM 
          0                 1           2             5    7     1       0.1204113697E+00       5    7    1         0.6450638829E+01      0.1260477963E+02
          0                 2           2             5    7     1      -0.4619407596E-01       5    7    1        -0.2514730486E+01      0.5509571270E+01
          0                 3           2             5    7     1       0.3143073701E-02       5    7    1         0.1758788227E+00      0.3854855104E+00
          0                 4           2             5    7     1      -0.1249144159E-03       5    7    1        -0.7184046108E-02      0.1575624760E-01
          0                 5           1             5    7     1       0.1534390087E-05       5    7    1         0.9065707900E-04      0.1993155045E-03

    ------------------------------------------------
       NWT REQUIRED            5 OUTER ITERATIONS 
       AND A TOTAL OF          9 INNER ITERATIONS.
    ------------------------------------------------

 NO OUTPUT CONTROL FOR STRESS PERIOD   46   TIME STEP   28
 
 SOLVING FOR HEAD 
                                                   Max.-Head-Change                         Max.-Flux-Residual
  Residual-Control   Outer-Iter.   Inner-Iter.     Column Row Layer    Maximum-Head-Change  Column Row Layer    Maximum-Flux-Residual          L2-NORM 
          0                 1           2             5    7     1       0.1180969574E+00       5    7    1         0.6285184006E+01      0.1330132344E+02
          0                 2           2             5    7     1      -0.4580047539E-01       5    7    1        -0.2498185166E+01      0.5638319302E+01
          0                 3           2             5    8     1      -0.8235541526E-02       5    8    1        -0.4723930711E+00      0.6042209124E+00
          0                 4           2             5    8     1      -0.8388880049E-03       5    8    1        -0.4736388462E-01      0.4986191621E-01
          0                 5           1             5    8     1       0.5710021919E-04       5    8    1         0.3327737371E-02      0.3331823957E-02

    ------------------------------------------------
       NWT REQUIRED            5 OUTER ITERATIONS 
       AND A TOTAL OF          9 INNER ITERATIONS.
    ------------------------------------------------

 NO OUTPUT CONTROL FOR STRESS PERIOD   46   TIME STEP   29
 
 SOLVING FOR HEAD 
                                                   Max.-Head-Change                         Max.-Flux-Residual
  Residual-Control   Outer-Iter.   Inner-Iter.     Column Row Layer    Maximum-Head-Change  Column Row Layer    Maximum-Flux-Residual          L2-NORM 
          0                 1           2             5    7     1       0.1158789951E+00       5    7    1         0.6164634988E+01      0.1310744748E+02
          0                 2           2             4    8     1      -0.4504622733E-01       4    8    1        -0.2472309999E+01      0.5026821291E+01
          0                 3           2             5    7     1      -0.7268811438E-02       5    7    1        -0.4145160993E+00      0.5753502701E+00
          0                 4           2             5    7     1      -0.1963170925E-02       5    7    1        -0.1102874082E+00      0.1263511080E+00
          0                 5           2             5    7     1      -0.5303320039E-03       5    7    1        -0.2984610529E-01      0.3417590485E-01
          0                 6           2             5    7     1      -0.1432946266E-03       5    7    1        -0.8062069595E-02      0.9282831782E-02
          0                 7           1             5    7     1      -0.3872597194E-04       5    7    1        -0.2178389010E-02      0.2521994471E-02

    ------------------------------------------------
       NWT REQUIRED            7 OUTER ITERATIONS 
       AND A TOTAL OF         13 INNER ITERATIONS.
    ------------------------------------------------

 NO OUTPUT CONTROL FOR STRESS PERIOD   46   TIME STEP   30



 STREAM LISTING     PERIOD     46   STEP       30

 LAYER ROW COL. STREAM  RCH.  FLOW INTO     FLOW TO   FLOW OUT OF   OVRLND.     DIRECT     STREAM       STREAM     STREAM     STREAM   STREAMBED  STREAMBED
                SEG.NO.  NO.  STRM. RCH.    AQUIFER    STRM. RCH.    RUNOFF     PRECIP       ET          HEAD       DEPTH      WIDTH   CONDCTNC.   GRADIENT

   1    1    1     1     1    1.9000E+01  2.1427E-01   1.8786E+01  0.000E+00  0.000E+00  0.000E+00  1.09413E+03  1.082E+00  1.166E+01  5.249E-02  1.361E+00
   1    2    2     1     2    1.8786E+01  3.3054E-01   1.8455E+01  0.000E+00  0.000E+00  0.000E+00  1.08914E+03  1.077E+00  1.158E+01  8.107E-02  1.359E+00
   1    3    3     1     3    1.8455E+01  2.8064E-01   1.8175E+01  0.000E+00  0.000E+00  0.000E+00  1.08349E+03  1.072E+00  1.149E+01  6.892E-02  1.357E+00
   1    3    4     1     4    1.8175E+01  2.5740E-01   1.7917E+01  0.000E+00  0.000E+00  0.000E+00  1.07848E+03  1.068E+00  1.140E+01  6.328E-02  1.356E+00
   1    4    5     2     1    1.5917E+01  3.0542E-01   1.5612E+01  0.000E+00  0.000E+00  0.000E+00  1.07285E+03  9.157E-01  1.200E+01  7.800E-02  1.305E+00
   1    5    6     2     2    1.5612E+01  2.3438E-01   1.5377E+01  0.000E+00  0.000E+00  0.000E+00  1.06742E+03  9.063E-01  1.200E+01  6.000E-02  1.302E+00
   1    6    6     2     3    1.5377E+01  2.3388E-01   1.5143E+01  0.000E+00  0.000E+00  0.000E+00  1.06269E+03  8.980E-01  1.200E+01  6.000E-02  1.299E+00
   1    7    6     2     4    1.5143E+01  2.3338E-01   1.4910E+01  0.000E+00  0.000E+00  0.000E+00  1.05797E+03  8.897E-01  1.200E+01  6.000E-02  1.297E+00
   1    8    6     2     5    1.4910E+01  2.3289E-01   1.4677E+01  0.000E+00  0.000E+00  0.000E+00  1.05324E+03  8.814E-01  1.200E+01  6.000E-02  1.294E+00
   1    3    5     3     1    2.0000E+00  2.8252E-01   1.7175E+00  0.000E+00  0.000E+00  0.000E+00  1.07555E+03  1.909E+00  9.636E+00  7.227E-02  1.955E+00
   1    3    6     3     2    1.7175E+00  2.4905E-01   1.4684E+00  0.000E+00  0.000E+00  0.000E+00  1.07264E+03  1.727E+00  8.909E+00  6.682E-02  1.864E+00
   1    3    7     3     3    1.4684E+00  1.9718E-01   1.2712E+00  0.000E+00  0.000E+00  0.000E+00  1.06987E+03  1.555E+00  8.218E+00  5.547E-02  1.777E+00
   1    4    8     3     4    1.2712E+00  2.2567E-01   1.0456E+00  0.000E+00  0.000E+00  0.000E+00  1.06682E+03  1.364E+00  7.455E+00  6.709E-02  1.682E+00
   1    5    8     3     5    1.0456E+00  1.5790E-01   8.8768E-01  0.000E+00  0.000E+00  0.000E+00  1.06362E+03  1.164E+00  6.655E+00  4.991E-02  1.582E+00
   1    6    8     3     6    8.8768E-01  5.5980E-02   8.3170E-01  0.000E+00  0.000E+00  0.000E+00  1.06158E+03  1.036E+00  6.145E+00  1.844E-02  1.518E+00
   1    5   10     4     1    1.0000E+01  9.0919E-02   9.9091E+00  0.000E+00  0.000E+00  0.000E+00  1.07836E+03  6.368E-01  1.000E+01  2.500E-02  1.212E+00
   1    5    9     4     2    9.9091E+00  1.8158E-01   9.7275E+00  0.000E+00  0.000E+00  0.000E+00  1.07154E+03  6.315E-01  1.000E+01  5.000E-02  1.211E+00
   1    6    8     4     3    9.7275E+00  1.2689E-01   9.6006E+00  0.000E+00  0.000E+00  0.000E+00  1.06381E+03  6.256E-01  1.000E+01  3.500E-02  1.209E+00
   1    6    8     5     1    1.0432E+01  2.2686E-01   1.0205E+01  0.000E+00  0.000E+00  0.000E+00  1.05868E+03  6.790E-01  1.542E+01  6.166E-02  1.226E+00
   1    7    7     5     2    1.0205E+01  2.7894E-01   9.9265E+00  0.000E+00  0.000E+00  0.000E+00  1.05417E+03  6.732E-01  1.519E+01  7.594E-02  1.224E+00
   1    8    7     5     3    9.9265E+00  1.9221E-01   9.7343E+00  0.000E+00  0.000E+00  0.000E+00  1.04992E+03  6.676E-01  1.497E+01  5.241E-02  1.223E+00
   1    8    6     5     4    9.7343E+00  1.3577E-01   9.5985E+00  0.000E+00  0.000E+00  0.000E+00  1.04691E+03  6.637E-01  1.482E+01  3.706E-02  1.221E+00
   1    9    6     6     1    2.4276E+01  2.5176E-01   2.4024E+01  0.000E+00  0.000E+00  0.000E+00  1.04392E+03  1.196E+00  1.200E+01  6.000E-02  1.399E+00
   1   10    7     6     2    2.4024E+01  2.5131E-01   2.3773E+01  0.000E+00  0.000E+00  0.000E+00  1.03937E+03  1.188E+00  1.200E+01  6.000E-02  1.396E+00
   1   11    7     6     3    2.3773E+01  2.5086E-01   2.3522E+01  0.000E+00  0.000E+00  0.000E+00  1.03482E+03  1.181E+00  1.200E+01  6.000E-02  1.394E+00
   1   12    7     6     4    2.3522E+01  2.5041E-01   2.3271E+01  0.000E+00  0.000E+00  0.000E+00  1.03026E+03  1.173E+00  1.200E+01  6.000E-02  1.391E+00
   1   13    7     6     5    2.3271E+01  1.1704E-02   2.3260E+01  0.000E+00  0.000E+00  0.000E+00  1.02708E+03  1.169E+00  1.200E+01  2.400E-02  1.626E-01
   1   14    9     7     1    1.5000E+02  1.3775E+00   1.4862E+02  0.000E+00  0.000E+00  0.000E+00  1.03987E+03  2.288E+00  5.529E+01  5.593E-01  8.209E-01
   1   13    8     7     2    1.4862E+02  1.9858E+00   1.4664E+02  0.000E+00  0.000E+00  0.000E+00  1.03478E+03  2.279E+00  5.525E+01  6.147E-01  1.077E+00
   1   13    7     7     3    1.4664E+02  1.7294E+00   1.4491E+02  0.000E+00  0.000E+00  0.000E+00  1.02969E+03  2.269E+00  5.521E+01  5.584E-01  1.032E+00
   1   13    6     8     1    1.6817E+02  1.1591E+00   1.6701E+02  0.000E+00  0.000E+00  0.000E+00  1.02481E+03  2.936E+00  4.258E+01  4.339E-01  8.905E-01
   1   13    5     8     2    1.6701E+02  3.9268E-01   1.6662E+02  0.000E+00  0.000E+00  0.000E+00  1.01856E+03  2.931E+00  4.250E+01  4.331E-01  3.022E-01
   1   13    4     8     3    1.6662E+02 -1.7124E+00   1.6833E+02  0.000E+00  0.000E+00  0.000E+00  1.01231E+03  2.936E+00  4.257E+01  4.338E+00 -1.316E-01
   1   13    3     8     4    1.6833E+02 -3.2937E+00   1.7162E+02  0.000E+00  0.000E+00  0.000E+00  1.00608E+03  2.952E+00  4.280E+01  4.362E+00 -2.517E-01
   1   13    2     8     5    1.7162E+02 -2.4857E+00   1.7411E+02  0.000E+00  0.000E+00  0.000E+00  9.99846E+02  2.971E+00  4.308E+01  4.390E+00 -1.888E-01
   1   13    1     8     6    1.7411E+02 -1.9576E+00   1.7606E+02  0.000E+00  0.000E+00  0.000E+00  9.94860E+02  2.985E+00  4.328E+01  2.646E+00 -2.466E-01





UNSATURATED ZONE PACKAGE VOLUMETRIC BUDGET FOR  TIME STEP    30 STRESS PERIOD   46
  ------------------------------------------------------------------------------



     CUMULATIVE VOLUMES      L**3       RATES FOR THIS TIME STEP      L**3/T
     ------------------                 ------------------------

           IN:                                      IN:
           ---                                      ---
        INFILTRATION =  1840566595.5097          INFILTRATION =          12.0675

          OUT:                                     OUT:
          ----                                     ----
              UZF ET =  1688764033.0314                UZF ET =          12.0675
        UZF RECHARGE =   119828989.4040          UZF RECHARGE =          11.1672

            IN - OUT =    31973573.0743              IN - OUT =         -11.1672

          STORAGE:                                 STORAGE:
          --------                                 --------
      STORAGE CHANGE =    31973575.4487        STORAGE CHANGE =         -11.1672

 PERCENT DISCREPANCY IS DIFFERENCE BETWEEN IN-OUT MINUS CHANGE IN STORAGE
 DIVIDED BY THE AVERAGE OF IN AND OUT TIMES 100

 PERCENT DISCREPANCY =           0.00     PERCENT DISCREPANCY =           0.00






1
  VOLUMETRIC BUDGET FOR AGRICULTURAL FIELDS AT  END OF TIME STEP   30, STRESS PERIOD  46
  ------------------------------------------------------------------------------

     CUMULATIVE VOLUMES      L**3       RATES FOR THIS TIME STEP      L**3/T
     ------------------                 ------------------------

           IN:                                      IN:
           ---                                      ---
               AG WELLS  =  1740194176.0000                 AG WELLS  =          11.2200
      DIVERSION SEGMENTS =           0.0000        DIVERSION SEGMENTS =           0.0000
       IRRIGATION PONDS  =           0.0000         IRRIGATION PONDS  =           0.0000
           GW IRRIGATION =           0.0000             GW IRRIGATION =           0.0000
           SW IRRIGATION =           0.0000             SW IRRIGATION =           0.0000
        SYSTEM LOSSES GW =           0.0000          SYSTEM LOSSES GW =           0.0000
        SYSTEM LOSSES SW =           0.0000          SYSTEM LOSSES SW =           0.0000

                TOTAL IN =  1740194176.0000                  TOTAL IN =          11.2200

          OUT:                                     OUT:
          ----                                     ----
               AG WELLS  =           0.0000                 AG WELLS  =           0.0000
      DIVERSION SEGMENTS =           0.0000        DIVERSION SEGMENTS =           0.0000
       IRRIGATION PONDS  =           0.0000         IRRIGATION PONDS  =           0.0000
           GW IRRIGATION =  1740194176.0000             GW IRRIGATION =          11.2200
           SW IRRIGATION =           0.0000             SW IRRIGATION =           0.0000
        SYSTEM LOSSES GW =           0.0000          SYSTEM LOSSES GW =           0.0000
        SYSTEM LOSSES SW =           0.0000          SYSTEM LOSSES SW =           0.0000

               TOTAL OUT =  1740194176.0000                 TOTAL OUT =          11.2200

                IN - OUT =           0.0000                  IN - OUT =           0.0000

     PERCENT DISCREPANCY =           0.00         PERCENT DISCREPANCY =           0.00



1
  VOLUMETRIC BUDGET FOR ENTIRE MODEL AT END OF TIME STEP   30, STRESS PERIOD  46
  ------------------------------------------------------------------------------

     CUMULATIVE VOLUMES      L**3       RATES FOR THIS TIME STEP      L**3/T
     ------------------                 ------------------------

           IN:                                      IN:
           ---                                      ---
             STORAGE     =  2214511104.0000               STORAGE     =          18.0817
       CONSTANT HEAD     =           0.0000         CONSTANT HEAD     =           0.0000
     HEAD DEP BOUNDS     =    33905156.0000       HEAD DEP BOUNDS     =           0.2886
      STREAM LEAKAGE     =  1451515776.0000        STREAM LEAKAGE     =          12.3847
        UZF RECHARGE     =   119829096.0000          UZF RECHARGE     =          11.1672
               GW ET     =           0.0000                 GW ET     =           0.0000
     SURFACE LEAKAGE     =           0.0000       SURFACE LEAKAGE     =           0.0000
           AG WELLS      =           0.0000             AG WELLS      =           0.0000

                TOTAL IN =  3819761152.0000                  TOTAL IN =          41.9221

          OUT:                                     OUT:
          ----                                     ----
             STORAGE     =   829984192.0000               STORAGE     =          20.9649
       CONSTANT HEAD     =           0.0000         CONSTANT HEAD     =           0.0000
     HEAD DEP BOUNDS     =    34551024.0000       HEAD DEP BOUNDS     =           0.2888
      STREAM LEAKAGE     =  1197432320.0000        STREAM LEAKAGE     =           9.4494
        UZF RECHARGE     =           0.0000          UZF RECHARGE     =           0.0000
               GW ET     =    17607784.0000                 GW ET     =           0.0000
     SURFACE LEAKAGE     =           0.0000       SURFACE LEAKAGE     =           0.0000
           AG WELLS      =  1740194176.0000             AG WELLS      =          11.2200

               TOTAL OUT =  3819769600.0000                 TOTAL OUT =          41.9231

                IN - OUT =       -8448.0000                  IN - OUT =      -9.4223E-04

     PERCENT DISCREPANCY =          -0.00         PERCENT DISCREPANCY =          -0.00






         TIME SUMMARY AT END OF TIME STEP   30 IN STRESS PERIOD   46
                    SECONDS     MINUTES      HOURS       DAYS        YEARS
                    -----------------------------------------------------------
   TIME STEP LENGTH  87667.      1461.1      24.352      1.0147     2.77799E-03
 STRESS PERIOD TIME 2.63000E+06  43833.      730.56      30.440     8.33397E-02
         TOTAL TIME 1.18435E+08 1.97392E+06  32899.      1370.8      3.7530    
1
1
                            STRESS PERIOD NO.   47, LENGTH =   2630000.    
                            -----------------------------------------------

                              NUMBER OF TIME STEPS =    30

                               MULTIPLIER FOR DELT =     1.000

                            INITIAL TIME STEP SIZE =   87666.66    

 REUSING NON-PARAMETER GHB CELLS FROM LAST STRESS PERIOD

      2 GHB CELLS

 REUSING STREAM SEGMENT DATA FROM LAST STRESS PERIOD



            AREAL INFILTRATION RATE
 READING ON UNIT   19 WITH FORMAT: (FREE)              

            1           2           3           4           5           6           7           8           9          10
 ........................................................................................................................
   1   1.0000E-10  2.0000E-10   0.000       0.000       0.000       0.000       0.000       0.000       0.000       0.000    
   2   2.0000E-10  1.0000E-10  2.0000E-10   0.000       0.000      8.0000E-10  8.0000E-10  5.0000E-10   0.000       0.000    
   3    0.000      5.0000E-10  1.0000E-10  1.0000E-10  8.0000E-10  8.0000E-10  5.0000E-10  5.0000E-10   0.000       0.000    
   4   8.0000E-10  5.0000E-10  1.0000E-10  1.0000E-10  1.0000E-10  1.0000E-10  1.0000E-10  1.0000E-10  2.0000E-10   0.000    
   5   8.0000E-10  5.0000E-10  1.0000E-10  1.0000E-10  1.0000E-10  1.0000E-10  1.0000E-10  1.0000E-10  1.0000E-10  1.0000E-10
   6   8.0000E-10  5.0000E-10  5.0000E-10  2.0000E-10  2.0000E-10  1.0000E-10  1.0000E-10  1.0000E-10  1.0000E-10  5.0000E-10
   7   8.0000E-10  5.0000E-10  5.0000E-10  2.0000E-10  2.0000E-10  1.0000E-10  1.0000E-10  2.0000E-10  2.0000E-10   0.000    
   8    0.000      5.0000E-10  5.0000E-10  2.0000E-10  2.0000E-10  1.0000E-10  1.0000E-10  2.0000E-10  5.0000E-10   0.000    
   9    0.000      5.0000E-10  5.0000E-10  2.0000E-10  2.0000E-10  1.0000E-10  1.0000E-10  2.0000E-10  5.0000E-10   0.000    
  10    0.000      5.0000E-10  5.0000E-10  2.0000E-10  2.0000E-10  1.0000E-10  1.0000E-10  2.0000E-10  5.0000E-10  8.0000E-10
  11    0.000      1.0000E-10  1.0000E-10  1.0000E-10  1.0000E-10  1.0000E-10  1.0000E-10  2.0000E-10  5.0000E-10   0.000    
  12   1.0000E-10  1.0000E-10  1.0000E-10  1.0000E-10  1.0000E-10  1.0000E-10  1.0000E-10  1.0000E-10  2.0000E-10   0.000    
  13   1.0000E-10  1.0000E-10  2.0000E-10  2.0000E-10  2.0000E-10  2.0000E-10  2.0000E-10  1.0000E-10  1.0000E-10   0.000    
  14    0.000      2.0000E-10  5.0000E-10  5.0000E-10  5.0000E-10  5.0000E-10  5.0000E-10  2.0000E-10  1.0000E-10   0.000    
  15    0.000       0.000      8.0000E-10  8.0000E-10  8.0000E-10  8.0000E-10   0.000       0.000       0.000       0.000    

                  ET RATE =  5.000000E-09

 USING ET EXTINCTION DEPTH FROM PREVIOUS STRESS PERIOD. CURRENT PERIOD IS:      47

 USING EXTINCTION WATER CONTENT FROM PREVIOUS STRESS PERIOD. CURRENT PERIOD IS:      47

 USING AIR ENTRY PRESSURE FROM PREVIOUS STRESS PERIOD. CURRENT PERIOD IS:      47

 USING ROOT PRESSURE HEAD FROM PREVIOUS STRESS PERIOD. CURRENT PERIOD IS:      47

 USING ROOT ACTIVITY FROM PREVIOUS STRESS PERIOD. CURRENT PERIOD IS:      47

 PROCESSING AG STRESS PERIOD DATA

 READING AG STRESS PERIOD DATA

 READING IRRIGATION WELL

 NO IRRPOND OR REUSING IRRPOND DATA FROM LAST STRESS PERIOD

 END PROCESSING AG STRESS PERIOD DATA OPTIONS
 
 SOLVING FOR HEAD 
                                                   Max.-Head-Change                         Max.-Flux-Residual
  Residual-Control   Outer-Iter.   Inner-Iter.     Column Row Layer    Maximum-Head-Change  Column Row Layer    Maximum-Flux-Residual          L2-NORM 
          0                 1           2             5    7     1       0.1136873302E+00       5    7    1         0.6046294313E+01      0.1290809658E+02
          0                 2           2             5    7     1       0.2633926337E-01       5    7    1         0.1459114332E+01      0.1939832920E+01
          0                 3           2             5    7     1      -0.2560790172E-02       5    7    1        -0.1453748306E+00      0.1788225562E+00
          0                 4           2             5    7     1       0.1742544462E-03       5    7    1         0.1013748506E-01      0.1176916387E-01
          0                 5           1             5    7     1      -0.6925418714E-05       5    7    1        -0.4128804026E-03      0.4644918044E-03

    ------------------------------------------------
       NWT REQUIRED            5 OUTER ITERATIONS 
       AND A TOTAL OF          9 INNER ITERATIONS.
    ------------------------------------------------

 NO OUTPUT CONTROL FOR STRESS PERIOD   47   TIME STEP    1
 
 SOLVING FOR HEAD 
                                                   Max.-Head-Change                         Max.-Flux-Residual
  Residual-Control   Outer-Iter.   Inner-Iter.     Column Row Layer    Maximum-Head-Change  Column Row Layer    Maximum-Flux-Residual          L2-NORM 
          0                 1           2             4    7     1       0.1329472071E+00       4    7    1         0.7021077628E+01      0.1367741481E+02
          0                 2           2             5    6     1       0.2179559675E-01       5    6    1         0.1216818344E+01      0.1746166418E+01
          0                 3           2             5    6     1       0.5385239609E-02       5    6    1         0.2959853484E+00      0.3087977185E+00
          0                 4           2             5    6     1       0.1330591037E-02       5    6    1         0.7342346204E-01      0.7350268747E-01
          0                 5           2             5    6     1       0.3287639526E-03       5    6    1         0.1813011810E-01      0.1813083423E-01
          0                 6           1             5    6     1       0.8123139505E-04       5    6    1         0.4479681634E-02      0.4479836088E-02

    ------------------------------------------------
       NWT REQUIRED            6 OUTER ITERATIONS 
       AND A TOTAL OF         11 INNER ITERATIONS.
    ------------------------------------------------

 NO OUTPUT CONTROL FOR STRESS PERIOD   47   TIME STEP    2
 
 SOLVING FOR HEAD 
                                                   Max.-Head-Change                         Max.-Flux-Residual
  Residual-Control   Outer-Iter.   Inner-Iter.     Column Row Layer    Maximum-Head-Change  Column Row Layer    Maximum-Flux-Residual          L2-NORM 
          0                 1           2             4    7     1       0.1310083658E+00       4    7    1         0.6917170534E+01      0.1340383275E+02
          0                 2           2             4    7     1      -0.1272528899E-01       4    7    1        -0.6913653373E+00      0.1288146994E+01
          0                 3           2             4    7     1       0.8551490408E-03       4    7    1         0.4835909099E-01      0.8360131418E-01
          0                 4           1             4    7     1      -0.3398551105E-04       4    7    1        -0.1980076538E-02      0.3503541947E-02

    ------------------------------------------------
       NWT REQUIRED            4 OUTER ITERATIONS 
       AND A TOTAL OF          7 INNER ITERATIONS.
    ------------------------------------------------

 NO OUTPUT CONTROL FOR STRESS PERIOD   47   TIME STEP    3
 
 SOLVING FOR HEAD 
                                                   Max.-Head-Change                         Max.-Flux-Residual
  Residual-Control   Outer-Iter.   Inner-Iter.     Column Row Layer    Maximum-Head-Change  Column Row Layer    Maximum-Flux-Residual          L2-NORM 
          0                 1           2             4    7     1       0.1289319115E+00       4    7    1         0.6806777865E+01      0.1316551476E+02
          0                 2           2             4    8     1       0.2433878370E-01       4    8    1         0.1335017275E+01      0.1782819029E+01
          0                 3           2             4    8     1       0.6151476897E-02       4    8    1         0.3328654708E+00      0.3413471514E+00
          0                 4           2             4    8     1       0.1445978536E-03       4    8    1         0.7872697547E-02      0.8386940141E-02
          0                 5           1             4    8     1      -0.1405805755E-04       4    8    1        -0.7847968063E-03      0.7861390997E-03

    ------------------------------------------------
       NWT REQUIRED            5 OUTER ITERATIONS 
       AND A TOTAL OF          9 INNER ITERATIONS.
    ------------------------------------------------

 NO OUTPUT CONTROL FOR STRESS PERIOD   47   TIME STEP    4
 
 SOLVING FOR HEAD 
                                                   Max.-Head-Change                         Max.-Flux-Residual
  Residual-Control   Outer-Iter.   Inner-Iter.     Column Row Layer    Maximum-Head-Change  Column Row Layer    Maximum-Flux-Residual          L2-NORM 
          0                 1           2             4    7     1       0.1273950665E+00       4    7    1         0.6726978215E+01      0.1292024634E+02
          0                 2           2             4    7     1       0.2841083868E-01       4    7    1         0.1566499678E+01      0.1915629047E+01
          0                 3           2             5    7     1       0.6986456781E-03       5    7    1         0.3960939668E-01      0.7846732492E-01
          0                 4           1             5    7     1      -0.2776563538E-04       5    7    1        -0.1608752650E-02      0.3314166783E-02

    ------------------------------------------------
       NWT REQUIRED            4 OUTER ITERATIONS 
       AND A TOTAL OF          7 INNER ITERATIONS.
    ------------------------------------------------

 NO OUTPUT CONTROL FOR STRESS PERIOD   47   TIME STEP    5
 
 SOLVING FOR HEAD 
                                                   Max.-Head-Change                         Max.-Flux-Residual
  Residual-Control   Outer-Iter.   Inner-Iter.     Column Row Layer    Maximum-Head-Change  Column Row Layer    Maximum-Flux-Residual          L2-NORM 
          0                 1           2             4    7     1       0.1239768617E+00       4    7    1         0.6510430217E+01      0.1352659739E+02
          0                 2           2             4    7     1      -0.1187811810E-01       4    7    1        -0.6507041355E+00      0.1177933411E+01
          0                 3           2             4    7     1       0.8031973815E-03       4    7    1         0.4551529222E-01      0.8403324146E-01
          0                 4           1             5    7     1      -0.7042535511E-04       5    7    1        -0.3926223046E-02      0.5176555458E-02

    ------------------------------------------------
       NWT REQUIRED            4 OUTER ITERATIONS 
       AND A TOTAL OF          7 INNER ITERATIONS.
    ------------------------------------------------

 NO OUTPUT CONTROL FOR STRESS PERIOD   47   TIME STEP    6
 
 SOLVING FOR HEAD 
                                                   Max.-Head-Change                         Max.-Flux-Residual
  Residual-Control   Outer-Iter.   Inner-Iter.     Column Row Layer    Maximum-Head-Change  Column Row Layer    Maximum-Flux-Residual          L2-NORM 
          0                 1           2             4    7     1       0.1228242407E+00       4    7    1         0.6450428097E+01      0.1335948404E+02
          0                 2           2             5    7     1       0.2440948617E-01       5    7    1         0.1371531823E+01      0.1836910741E+01
          0                 3           2             5    7     1      -0.2373184891E-02       5    7    1        -0.1363951302E+00      0.1613826383E+00
          0                 4           2             5    7     1       0.1614903069E-03       5    7    1         0.9494108473E-02      0.1015421924E-01
          0                 5           1             5    7     1      -0.6418224646E-05       5    7    1        -0.3859954522E-03      0.3893693943E-03

    ------------------------------------------------
       NWT REQUIRED            5 OUTER ITERATIONS 
       AND A TOTAL OF          9 INNER ITERATIONS.
    ------------------------------------------------

 NO OUTPUT CONTROL FOR STRESS PERIOD   47   TIME STEP    7
 
 SOLVING FOR HEAD 
                                                   Max.-Head-Change                         Max.-Flux-Residual
  Residual-Control   Outer-Iter.   Inner-Iter.     Column Row Layer    Maximum-Head-Change  Column Row Layer    Maximum-Flux-Residual          L2-NORM 
          0                 1           2             4    7     1       0.1219713322E+00       4    7    1         0.6409666182E+01      0.1313161112E+02
          0                 2           2             4    7     1      -0.1185158475E-01       4    7    1        -0.6406341765E+00      0.1352664745E+01
          0                 3           2             5    8     1       0.2237559633E-02       5    8    1         0.1222747775E+00      0.1504396752E+00
          0                 4           1             5    8     1       0.5526041403E-03       5    8    1         0.3053267569E-01      0.3073143892E-01
          0                 5           1             5    8     1       0.1364749040E-03       5    8    1         0.7527694904E-02      0.7528304685E-02
          0                 6           1             5    8     1       0.3370479087E-04       5    8    1         0.1859138824E-02      0.1859254515E-02

    ------------------------------------------------
       NWT REQUIRED            6 OUTER ITERATIONS 
       AND A TOTAL OF          9 INNER ITERATIONS.
    ------------------------------------------------

 NO OUTPUT CONTROL FOR STRESS PERIOD   47   TIME STEP    8
 
 SOLVING FOR HEAD 
                                                   Max.-Head-Change                         Max.-Flux-Residual
  Residual-Control   Outer-Iter.   Inner-Iter.     Column Row Layer    Maximum-Head-Change  Column Row Layer    Maximum-Flux-Residual          L2-NORM 
          0                 1           2             4    7     1       0.1205879151E+00       4    7    1         0.6337683792E+01      0.1291693585E+02
          0                 2           2             5    6     1       0.1775637961E-01       5    6    1         0.9970471823E+00      0.1752580813E+01
          0                 3           2             5    6     1       0.4386982730E-02       5    6    1         0.2407303435E+00      0.2683939715E+00
          0                 4           2             5    6     1       0.1083880935E-02       5    6    1         0.5982615243E-01      0.6021114479E-01
          0                 5           2             5    6     1       0.2677915916E-03       5    6    1         0.1476719826E-01      0.1477716707E-01
          0                 6           1             5    6     1       0.6616258110E-04       5    6    1         0.3648403055E-02      0.3676416052E-02

    ------------------------------------------------
       NWT REQUIRED            6 OUTER ITERATIONS 
       AND A TOTAL OF         11 INNER ITERATIONS.
    ------------------------------------------------

 NO OUTPUT CONTROL FOR STRESS PERIOD   47   TIME STEP    9
 
 SOLVING FOR HEAD 
                                                   Max.-Head-Change                         Max.-Flux-Residual
  Residual-Control   Outer-Iter.   Inner-Iter.     Column Row Layer    Maximum-Head-Change  Column Row Layer    Maximum-Flux-Residual          L2-NORM 
          0                 1           2             4    7     1       0.1192383472E+00       4    7    1         0.6266669980E+01      0.1269729045E+02
          0                 2           2             4    7     1       0.1814670851E-01       4    7    1         0.9966927623E+00      0.1438463412E+01
          0                 3           2             4    7     1       0.4612517992E-02       4    7    1         0.2481953812E+00      0.2908491820E+00
          0                 4           2             4    7     1       0.1172689088E-02       4    7    1         0.6341145612E-01      0.7299246312E-01
          0                 5           2             4    7     1       0.2982153544E-03       4    7    1         0.1610996044E-01      0.1864823475E-01
          0                 6           1             4    7     1       0.7585395084E-04       4    7    1         0.4096930938E-02      0.4770915764E-02

    ------------------------------------------------
       NWT REQUIRED            6 OUTER ITERATIONS 
       AND A TOTAL OF         11 INNER ITERATIONS.
    ------------------------------------------------

 NO OUTPUT CONTROL FOR STRESS PERIOD   47   TIME STEP   10
 
 SOLVING FOR HEAD 
                                                   Max.-Head-Change                         Max.-Flux-Residual
  Residual-Control   Outer-Iter.   Inner-Iter.     Column Row Layer    Maximum-Head-Change  Column Row Layer    Maximum-Flux-Residual          L2-NORM 
          0                 1           2             4    7     1       0.1164213582E+00       4    7    1         0.6116286654E+01      0.1248057690E+02
          0                 2           2             4    6     1       0.2290184809E-01       4    6    1         0.1259666919E+01      0.1634725454E+01
          0                 3           2             4    6     1       0.5751220457E-02       4    6    1         0.3127783344E+00      0.3241731681E+00
          0                 4           2             4    6     1       0.1444278518E-02       4    6    1         0.7876623224E-01      0.7891154746E-01
          0                 5           2             4    6     1       0.3626952343E-03       4    6    1         0.1977133718E-01      0.1977271683E-01
          0                 6           1             4    6     1       0.9108205726E-04       4    6    1         0.4965445607E-02      0.4965501295E-02

    ------------------------------------------------
       NWT REQUIRED            6 OUTER ITERATIONS 
       AND A TOTAL OF         11 INNER ITERATIONS.
    ------------------------------------------------

 NO OUTPUT CONTROL FOR STRESS PERIOD   47   TIME STEP   11
 
 SOLVING FOR HEAD 
                                                   Max.-Head-Change                         Max.-Flux-Residual
  Residual-Control   Outer-Iter.   Inner-Iter.     Column Row Layer    Maximum-Head-Change  Column Row Layer    Maximum-Flux-Residual          L2-NORM 
          0                 1           2             4    7     1       0.1156454711E+00       4    7    1         0.6079609299E+01      0.1226359860E+02
          0                 2           2             4    7     1      -0.1124327119E-01       4    7    1        -0.6076461136E+00      0.1225736175E+01
          0                 3           2             4    7     1       0.7650459271E-03       4    7    1         0.4250304691E-01      0.8573976608E-01
          0                 4           1             4    7     1      -0.3040370640E-04       4    7    1        -0.1736196290E-02      0.3502563154E-02

    ------------------------------------------------
       NWT REQUIRED            4 OUTER ITERATIONS 
       AND A TOTAL OF          7 INNER ITERATIONS.
    ------------------------------------------------

 NO OUTPUT CONTROL FOR STRESS PERIOD   47   TIME STEP   12
 
 SOLVING FOR HEAD 
                                                   Max.-Head-Change                         Max.-Flux-Residual
  Residual-Control   Outer-Iter.   Inner-Iter.     Column Row Layer    Maximum-Head-Change  Column Row Layer    Maximum-Flux-Residual          L2-NORM 
          0                 1           2             4    7     1       0.1142598703E+00       4    7    1         0.6008582204E+01      0.1160052366E+02
          0                 2           2             4    7     1      -0.1081056761E-01       4    7    1        -0.6005474574E+00      0.1205757695E+01
          0                 3           2             5    7     1       0.2558107462E-02       5    7    1         0.1398795400E+00      0.1581630126E+00
          0                 4           2             5    7     1       0.6313796729E-03       5    7    1         0.3489937045E-01      0.3501777920E-01
          0                 5           2             5    7     1       0.1558337697E-03       5    7    1         0.8599073104E-02      0.8599741296E-02
          0                 6           1             5    7     1       0.3846207549E-04       5    7    1         0.2122458415E-02      0.2122597385E-02

    ------------------------------------------------
       NWT REQUIRED            6 OUTER ITERATIONS 
       AND A TOTAL OF         11 INNER ITERATIONS.
    ------------------------------------------------

 NO OUTPUT CONTROL FOR STRESS PERIOD   47   TIME STEP   13
 
 SOLVING FOR HEAD 
                                                   Max.-Head-Change                         Max.-Flux-Residual
  Residual-Control   Outer-Iter.   Inner-Iter.     Column Row Layer    Maximum-Head-Change  Column Row Layer    Maximum-Flux-Residual          L2-NORM 
          0                 1           2             4    7     1       0.1132024744E+00       4    7    1         0.5956380975E+01      0.1140074750E+02
          0                 2           2             4    7     1      -0.1071342934E-01       4    7    1        -0.5953307744E+00      0.1193228420E+01
          0                 3           2             5    7     1      -0.1004245457E-02       5    7    1        -0.5832307979E-01      0.9335249310E-01
          0                 4           1             5    7     1       0.6833737573E-04       5    7    1         0.4042422512E-02      0.5038436773E-02

    ------------------------------------------------
       NWT REQUIRED            4 OUTER ITERATIONS 
       AND A TOTAL OF          7 INNER ITERATIONS.
    ------------------------------------------------

 NO OUTPUT CONTROL FOR STRESS PERIOD   47   TIME STEP   14
 
 SOLVING FOR HEAD 
                                                   Max.-Head-Change                         Max.-Flux-Residual
  Residual-Control   Outer-Iter.   Inner-Iter.     Column Row Layer    Maximum-Head-Change  Column Row Layer    Maximum-Flux-Residual          L2-NORM 
          0                 1           2             4    7     1       0.1120279778E+00       4    7    1         0.5897268211E+01      0.1121268453E+02
          0                 2           2             4    6     1      -0.9225567582E-02       4    6    1        -0.5071218898E+00      0.9752866739E+00
          0                 3           2             4    7     1      -0.1101385333E-02       4    7    1        -0.6301154545E-01      0.9174009720E-01
          0                 4           1             4    7     1      -0.2997811274E-03       4    7    1        -0.1671332572E-01      0.1693988173E-01
          0                 5           1             4    7     1      -0.8159445319E-04       4    7    1        -0.4564940753E-02      0.4564981264E-02

    ------------------------------------------------
       NWT REQUIRED            5 OUTER ITERATIONS 
       AND A TOTAL OF          8 INNER ITERATIONS.
    ------------------------------------------------

 NO OUTPUT CONTROL FOR STRESS PERIOD   47   TIME STEP   15
 
 SOLVING FOR HEAD 
                                                   Max.-Head-Change                         Max.-Flux-Residual
  Residual-Control   Outer-Iter.   Inner-Iter.     Column Row Layer    Maximum-Head-Change  Column Row Layer    Maximum-Flux-Residual          L2-NORM 
          0                 1           2             4    7     1       0.1103245396E+00       4    7    1         0.5808031618E+01      0.1103863852E+02
          0                 2           2             4    7     1       0.2777760051E-01       4    7    1         0.1531274255E+01      0.1795940034E+01
          0                 3           2             4    7     1      -0.2440704570E-02       4    7    1        -0.1379461304E+00      0.1531741964E+00
          0                 4           1             4    7     1       0.1660831946E-03       4    7    1         0.9610956409E-02      0.1001139553E-01
          0                 5           1             4    7     1      -0.6600638688E-05       4    7    1        -0.3910963219E-03      0.3932617737E-03

    ------------------------------------------------
       NWT REQUIRED            5 OUTER ITERATIONS 
       AND A TOTAL OF          8 INNER ITERATIONS.
    ------------------------------------------------

 NO OUTPUT CONTROL FOR STRESS PERIOD   47   TIME STEP   16
 
 SOLVING FOR HEAD 
                                                   Max.-Head-Change                         Max.-Flux-Residual
  Residual-Control   Outer-Iter.   Inner-Iter.     Column Row Layer    Maximum-Head-Change  Column Row Layer    Maximum-Flux-Residual          L2-NORM 
          0                 1           2             4    7     1       0.1071187078E+00       4    7    1         0.5635850807E+01      0.1085813033E+02
          0                 2           2             4    7     1      -0.1011356119E-01       4    7    1        -0.5632936922E+00      0.9267961780E+00
          0                 3           2             5    6     1       0.2001625194E-02       5    6    1         0.1089009519E+00      0.1357795769E+00
          0                 4           2             5    6     1       0.5005143295E-03       5    6    1         0.2739032994E-01      0.3174698409E-01
          0                 5           2             5    6     1       0.1252210049E-03       5    6    1         0.6843493227E-02      0.7995262395E-02
          0                 6           1             5    6     1       0.3134463414E-04       5    6    1         0.1712440004E-02      0.2021760342E-02

    ------------------------------------------------
       NWT REQUIRED            6 OUTER ITERATIONS 
       AND A TOTAL OF         11 INNER ITERATIONS.
    ------------------------------------------------

 NO OUTPUT CONTROL FOR STRESS PERIOD   47   TIME STEP   17
 
 SOLVING FOR HEAD 
                                                   Max.-Head-Change                         Max.-Flux-Residual
  Residual-Control   Outer-Iter.   Inner-Iter.     Column Row Layer    Maximum-Head-Change  Column Row Layer    Maximum-Flux-Residual          L2-NORM 
          0                 1           2             4    7     1       0.1060864426E+00       4    7    1         0.5583546603E+01      0.1068006502E+02
          0                 2           2             4    8     1       0.2039088385E-01       4    8    1         0.1116326104E+01      0.1988975644E+01
          0                 3           2             4    8     1       0.3770996251E-02       4    8    1         0.2038727182E+00      0.2446347710E+00
          0                 4           2             4    8     1      -0.3666221188E-03       4    8    1        -0.2042561980E-01      0.2227397094E-01
          0                 5           1             4    8     1       0.2494733954E-04       4    8    1         0.1430697054E-02      0.1473473424E-02

    ------------------------------------------------
       NWT REQUIRED            5 OUTER ITERATIONS 
       AND A TOTAL OF          9 INNER ITERATIONS.
    ------------------------------------------------

 NO OUTPUT CONTROL FOR STRESS PERIOD   47   TIME STEP   18
 
 SOLVING FOR HEAD 
                                                   Max.-Head-Change                         Max.-Flux-Residual
  Residual-Control   Outer-Iter.   Inner-Iter.     Column Row Layer    Maximum-Head-Change  Column Row Layer    Maximum-Flux-Residual          L2-NORM 
          0                 1           2             4    7     1       0.1054807587E+00       4    7    1         0.5555292208E+01      0.1049199211E+02
          0                 2           2             4    7     1      -0.1025506731E-01       4    7    1        -0.5552432086E+00      0.1048679084E+01
          0                 3           2             4    7     1       0.6978047246E-03       4    7    1         0.3883766135E-01      0.7335577635E-01
          0                 4           1             4    7     1      -0.2773154471E-04       4    7    1        -0.1586473533E-02      0.2996840559E-02

    ------------------------------------------------
       NWT REQUIRED            4 OUTER ITERATIONS 
       AND A TOTAL OF          7 INNER ITERATIONS.
    ------------------------------------------------

 NO OUTPUT CONTROL FOR STRESS PERIOD   47   TIME STEP   19
 
 SOLVING FOR HEAD 
                                                   Max.-Head-Change                         Max.-Flux-Residual
  Residual-Control   Outer-Iter.   Inner-Iter.     Column Row Layer    Maximum-Head-Change  Column Row Layer    Maximum-Flux-Residual          L2-NORM 
          0                 1           2             4    7     1       0.1040486674E+00       4    7    1         0.5480469860E+01      0.1034419004E+02
          0                 2           2             4    7     1      -0.1010710061E-01       4    7    1        -0.5477648287E+00      0.1021460360E+01
          0                 3           2             4    7     1       0.6792385374E-03       4    7    1         0.3831459374E-01      0.6625051607E-01
          0                 4           1             4    7     1      -0.2699412319E-04       4    7    1        -0.1566592621E-02      0.2716429838E-02

    ------------------------------------------------
       NWT REQUIRED            4 OUTER ITERATIONS 
       AND A TOTAL OF          7 INNER ITERATIONS.
    ------------------------------------------------

 NO OUTPUT CONTROL FOR STRESS PERIOD   47   TIME STEP   20
 
 SOLVING FOR HEAD 
                                                   Max.-Head-Change                         Max.-Flux-Residual
  Residual-Control   Outer-Iter.   Inner-Iter.     Column Row Layer    Maximum-Head-Change  Column Row Layer    Maximum-Flux-Residual          L2-NORM 
          0                 1           2             4    7     1       0.1026265566E+00       4    7    1         0.5406067917E+01      0.1020093121E+02
          0                 2           2             5    7     1       0.1735796833E-01       5    7    1         0.9731635040E+00      0.1269859101E+01
          0                 3           2             5    7     1       0.4251626699E-02       5    7    1         0.2353931411E+00      0.2539892715E+00
          0                 4           2             5    7     1       0.1041114557E-02       5    7    1         0.5784043106E-01      0.6119835504E-01
          0                 5           2             5    7     1       0.2548670778E-03       5    7    1         0.1415517365E-01      0.1504266270E-01
          0                 6           1             5    7     1       0.6237141667E-04       5    7    1         0.3465295728E-02      0.3702424705E-02

    ------------------------------------------------
       NWT REQUIRED            6 OUTER ITERATIONS 
       AND A TOTAL OF         11 INNER ITERATIONS.
    ------------------------------------------------

 NO OUTPUT CONTROL FOR STRESS PERIOD   47   TIME STEP   21
 
 SOLVING FOR HEAD 
                                                   Max.-Head-Change                         Max.-Flux-Residual
  Residual-Control   Outer-Iter.   Inner-Iter.     Column Row Layer    Maximum-Head-Change  Column Row Layer    Maximum-Flux-Residual          L2-NORM 
          0                 1           2             4    7     1       0.1010467906E+00       4    7    1         0.5354055713E+01      0.9382694458E+01
          0                 2           2             4    7     1       0.2560404752E-01       4    7    1         0.1399056352E+01      0.1558581677E+01
          0                 3           2             4    7     1       0.4016438105E-02       4    7    1         0.2185859829E+00      0.2243495563E+00
          0                 4           1             4    7     1      -0.3904856383E-03       4    7    1        -0.2188334145E-01      0.2199692211E-01
          0                 5           1             4    7     1       0.2657127899E-04       4    7    1         0.1531969473E-02      0.1533498785E-02

    ------------------------------------------------
       NWT REQUIRED            5 OUTER ITERATIONS 
       AND A TOTAL OF          8 INNER ITERATIONS.
    ------------------------------------------------

 NO OUTPUT CONTROL FOR STRESS PERIOD   47   TIME STEP   22
 
 SOLVING FOR HEAD 
                                                   Max.-Head-Change                         Max.-Flux-Residual
  Residual-Control   Outer-Iter.   Inner-Iter.     Column Row Layer    Maximum-Head-Change  Column Row Layer    Maximum-Flux-Residual          L2-NORM 
          0                 1           2             4    7     1       0.9655744777E-01       4    7    1         0.5153327684E+01      0.8490463386E+01
          0                 2           2             4    7     1      -0.9387705093E-02       4    7    1        -0.5150794575E+00      0.8486475197E+00
          0                 3           2             4    7     1       0.6387900659E-03       4    7    1         0.3602860208E-01      0.5936509832E-01
          0                 4           1             4    7     1      -0.2538664060E-04       4    7    1        -0.1471751451E-02      0.2425305781E-02

    ------------------------------------------------
       NWT REQUIRED            4 OUTER ITERATIONS 
       AND A TOTAL OF          7 INNER ITERATIONS.
    ------------------------------------------------

 NO OUTPUT CONTROL FOR STRESS PERIOD   47   TIME STEP   23
 
 SOLVING FOR HEAD 
                                                   Max.-Head-Change                         Max.-Flux-Residual
  Residual-Control   Outer-Iter.   Inner-Iter.     Column Row Layer    Maximum-Head-Change  Column Row Layer    Maximum-Flux-Residual          L2-NORM 
          0                 1           2             4    7     1       0.9406722673E-01       4    7    1         0.5016841209E+01      0.8342283032E+01
          0                 2           2             4    7     1      -0.9145582247E-02       4    7    1        -0.5014366135E+00      0.8338365911E+00
          0                 3           2             4    7     1       0.6223145244E-03       4    7    1         0.3507430522E-01      0.5832913595E-01
          0                 4           1             4    7     1      -0.2473185318E-04       4    7    1        -0.1432767559E-02      0.2382991253E-02

    ------------------------------------------------
       NWT REQUIRED            4 OUTER ITERATIONS 
       AND A TOTAL OF          7 INNER ITERATIONS.
    ------------------------------------------------

 NO OUTPUT CONTROL FOR STRESS PERIOD   47   TIME STEP   24
 
 SOLVING FOR HEAD 
                                                   Max.-Head-Change                         Max.-Flux-Residual
  Residual-Control   Outer-Iter.   Inner-Iter.     Column Row Layer    Maximum-Head-Change  Column Row Layer    Maximum-Flux-Residual          L2-NORM 
          0                 1           2             4    7     1       0.9170404136E-01       4    7    1         0.4887460049E+01      0.8202059033E+01
          0                 2           2             4    6     1       0.1701229110E-01       4    6    1         0.9409374811E+00      0.1173575385E+01
          0                 3           2             4    6     1       0.4271753984E-02       4    6    1         0.2319756937E+00      0.2372171518E+00
          0                 4           2             4    6     1       0.1072634227E-02       4    6    1         0.5851701426E-01      0.5854410289E-01
          0                 5           2             4    6     1       0.2693375139E-03       4    6    1         0.1468278331E-01      0.1468338437E-01
          0                 6           1             4    6     1       0.6763042779E-04       4    6    1         0.3687007607E-02      0.3687120507E-02

    ------------------------------------------------
       NWT REQUIRED            6 OUTER ITERATIONS 
       AND A TOTAL OF         11 INNER ITERATIONS.
    ------------------------------------------------

 NO OUTPUT CONTROL FOR STRESS PERIOD   47   TIME STEP   25
 
 SOLVING FOR HEAD 
                                                   Max.-Head-Change                         Max.-Flux-Residual
  Residual-Control   Outer-Iter.   Inner-Iter.     Column Row Layer    Maximum-Head-Change  Column Row Layer    Maximum-Flux-Residual          L2-NORM 
          0                 1           2             4    7     1       0.8985829505E-01       4    7    1         0.4788692993E+01      0.7446315198E+01
          0                 2           2             4    7     1      -0.8585482238E-02       4    7    1        -0.4786319590E+00      0.6518691801E+00
          0                 3           2             4    7     1       0.5842111174E-03       4    7    1         0.3355763647E-01      0.4764137696E-01
          0                 4           1             4    7     1      -0.2321808906E-04       4    7    1        -0.1378399947E-02      0.2226266406E-02

    ------------------------------------------------
       NWT REQUIRED            4 OUTER ITERATIONS 
       AND A TOTAL OF          7 INNER ITERATIONS.
    ------------------------------------------------

 NO OUTPUT CONTROL FOR STRESS PERIOD   47   TIME STEP   26
 
 SOLVING FOR HEAD 
                                                   Max.-Head-Change                         Max.-Flux-Residual
  Residual-Control   Outer-Iter.   Inner-Iter.     Column Row Layer    Maximum-Head-Change  Column Row Layer    Maximum-Flux-Residual          L2-NORM 
          0                 1           2             4    7     1       0.8778762122E-01       4    7    1         0.4676843858E+01      0.7305977965E+01
          0                 2           2             4    7     1      -0.8535032654E-02       4    7    1        -0.4674520478E+00      0.7302643731E+00
          0                 3           2             4    7     1       0.5807693208E-03       4    7    1         0.3269715134E-01      0.5108501314E-01
          0                 4           1             4    7     1      -0.2308075415E-04       4    7    1        -0.1335660177E-02      0.2087105850E-02

    ------------------------------------------------
       NWT REQUIRED            4 OUTER ITERATIONS 
       AND A TOTAL OF          7 INNER ITERATIONS.
    ------------------------------------------------

 NO OUTPUT CONTROL FOR STRESS PERIOD   47   TIME STEP   27
 
 SOLVING FOR HEAD 
                                                   Max.-Head-Change                         Max.-Flux-Residual
  Residual-Control   Outer-Iter.   Inner-Iter.     Column Row Layer    Maximum-Head-Change  Column Row Layer    Maximum-Flux-Residual          L2-NORM 
          0                 1           2             4    6     1       0.7193809128E-01       4    6    1         0.3861889921E+01      0.5951314380E+01
          0                 2           2             4    6     1      -0.6994056823E-02       4    6    1        -0.3859939899E+00      0.5948759433E+00
          0                 3           2             4    6     1       0.4759175980E-03       4    6    1         0.2699955293E-01      0.4161595569E-01
          0                 4           1             4    6     1      -0.1891404280E-04       4    6    1        -0.1102926709E-02      0.1700374697E-02

    ------------------------------------------------
       NWT REQUIRED            4 OUTER ITERATIONS 
       AND A TOTAL OF          7 INNER ITERATIONS.
    ------------------------------------------------

 NO OUTPUT CONTROL FOR STRESS PERIOD   47   TIME STEP   28
 
 SOLVING FOR HEAD 
                                                   Max.-Head-Change                         Max.-Flux-Residual
  Residual-Control   Outer-Iter.   Inner-Iter.     Column Row Layer    Maximum-Head-Change  Column Row Layer    Maximum-Flux-Residual          L2-NORM 
          0                 1           2             4    6     1       0.6968030424E-01       4    6    1         0.3737736218E+01      0.5852268286E+01
          0                 2           2             4    6     1      -0.6774540752E-02       4    6    1        -0.3735844206E+00      0.5849759817E+00
          0                 3           2             4    6     1       0.4609802568E-03       4    6    1         0.2613151465E-01      0.4092344652E-01
          0                 4           1             4    6     1      -0.1832038675E-04       4    6    1        -0.1067466445E-02      0.1672077990E-02

    ------------------------------------------------
       NWT REQUIRED            4 OUTER ITERATIONS 
       AND A TOTAL OF          7 INNER ITERATIONS.
    ------------------------------------------------

 NO OUTPUT CONTROL FOR STRESS PERIOD   47   TIME STEP   29
 
 SOLVING FOR HEAD 
                                                   Max.-Head-Change                         Max.-Flux-Residual
  Residual-Control   Outer-Iter.   Inner-Iter.     Column Row Layer    Maximum-Head-Change  Column Row Layer    Maximum-Flux-Residual          L2-NORM 
          0                 1           2             4    6     1       0.6754532735E-01       4    6    1         0.3620425737E+01      0.5758740444E+01
          0                 2           2             4    6     1      -0.6566965243E-02       4    6    1        -0.3618588671E+00      0.5756276015E+00
          0                 3           2             4    6     1       0.4468554364E-03       4    6    1         0.2531132302E-01      0.4026952547E-01
          0                 4           1             4    6     1      -0.1775902365E-04       4    6    1        -0.1033960811E-02      0.1645366983E-02

    ------------------------------------------------
       NWT REQUIRED            4 OUTER ITERATIONS 
       AND A TOTAL OF          7 INNER ITERATIONS.
    ------------------------------------------------

 NO OUTPUT CONTROL FOR STRESS PERIOD   47   TIME STEP   30



 STREAM LISTING     PERIOD     47   STEP       30

 LAYER ROW COL. STREAM  RCH.  FLOW INTO     FLOW TO   FLOW OUT OF   OVRLND.     DIRECT     STREAM       STREAM     STREAM     STREAM   STREAMBED  STREAMBED
                SEG.NO.  NO.  STRM. RCH.    AQUIFER    STRM. RCH.    RUNOFF     PRECIP       ET          HEAD       DEPTH      WIDTH   CONDCTNC.   GRADIENT

   1    1    1     1     1    1.9000E+01  2.1427E-01   1.8786E+01  0.000E+00  0.000E+00  0.000E+00  1.09413E+03  1.082E+00  1.166E+01  5.249E-02  1.361E+00
   1    2    2     1     2    1.8786E+01  3.3054E-01   1.8455E+01  0.000E+00  0.000E+00  0.000E+00  1.08914E+03  1.077E+00  1.158E+01  8.107E-02  1.359E+00
   1    3    3     1     3    1.8455E+01  2.8064E-01   1.8175E+01  0.000E+00  0.000E+00  0.000E+00  1.08349E+03  1.072E+00  1.149E+01  6.892E-02  1.357E+00
   1    3    4     1     4    1.8175E+01  2.5740E-01   1.7917E+01  0.000E+00  0.000E+00  0.000E+00  1.07848E+03  1.068E+00  1.140E+01  6.328E-02  1.356E+00
   1    4    5     2     1    1.5917E+01  3.0542E-01   1.5612E+01  0.000E+00  0.000E+00  0.000E+00  1.07285E+03  9.157E-01  1.200E+01  7.800E-02  1.305E+00
   1    5    6     2     2    1.5612E+01  2.3438E-01   1.5377E+01  0.000E+00  0.000E+00  0.000E+00  1.06742E+03  9.063E-01  1.200E+01  6.000E-02  1.302E+00
   1    6    6     2     3    1.5377E+01  2.3388E-01   1.5143E+01  0.000E+00  0.000E+00  0.000E+00  1.06269E+03  8.980E-01  1.200E+01  6.000E-02  1.299E+00
   1    7    6     2     4    1.5143E+01  2.3338E-01   1.4910E+01  0.000E+00  0.000E+00  0.000E+00  1.05797E+03  8.897E-01  1.200E+01  6.000E-02  1.297E+00
   1    8    6     2     5    1.4910E+01  2.3289E-01   1.4677E+01  0.000E+00  0.000E+00  0.000E+00  1.05324E+03  8.814E-01  1.200E+01  6.000E-02  1.294E+00
   1    3    5     3     1    2.0000E+00  2.8252E-01   1.7175E+00  0.000E+00  0.000E+00  0.000E+00  1.07555E+03  1.909E+00  9.636E+00  7.227E-02  1.955E+00
   1    3    6     3     2    1.7175E+00  2.4905E-01   1.4684E+00  0.000E+00  0.000E+00  0.000E+00  1.07264E+03  1.727E+00  8.909E+00  6.682E-02  1.864E+00
   1    3    7     3     3    1.4684E+00  1.9718E-01   1.2712E+00  0.000E+00  0.000E+00  0.000E+00  1.06987E+03  1.555E+00  8.218E+00  5.547E-02  1.777E+00
   1    4    8     3     4    1.2712E+00  2.2567E-01   1.0456E+00  0.000E+00  0.000E+00  0.000E+00  1.06682E+03  1.364E+00  7.455E+00  6.709E-02  1.682E+00
   1    5    8     3     5    1.0456E+00  1.5790E-01   8.8768E-01  0.000E+00  0.000E+00  0.000E+00  1.06362E+03  1.164E+00  6.655E+00  4.991E-02  1.582E+00
   1    6    8     3     6    8.8768E-01  5.5980E-02   8.3170E-01  0.000E+00  0.000E+00  0.000E+00  1.06158E+03  1.036E+00  6.145E+00  1.844E-02  1.518E+00
   1    5   10     4     1    1.0000E+01  9.0919E-02   9.9091E+00  0.000E+00  0.000E+00  0.000E+00  1.07836E+03  6.368E-01  1.000E+01  2.500E-02  1.212E+00
   1    5    9     4     2    9.9091E+00  1.8158E-01   9.7275E+00  0.000E+00  0.000E+00  0.000E+00  1.07154E+03  6.315E-01  1.000E+01  5.000E-02  1.211E+00
   1    6    8     4     3    9.7275E+00  1.2689E-01   9.6006E+00  0.000E+00  0.000E+00  0.000E+00  1.06381E+03  6.256E-01  1.000E+01  3.500E-02  1.209E+00
   1    6    8     5     1    1.0432E+01  2.2686E-01   1.0205E+01  0.000E+00  0.000E+00  0.000E+00  1.05868E+03  6.790E-01  1.542E+01  6.166E-02  1.226E+00
   1    7    7     5     2    1.0205E+01  2.7894E-01   9.9265E+00  0.000E+00  0.000E+00  0.000E+00  1.05417E+03  6.732E-01  1.519E+01  7.594E-02  1.224E+00
   1    8    7     5     3    9.9265E+00  1.9221E-01   9.7343E+00  0.000E+00  0.000E+00  0.000E+00  1.04992E+03  6.676E-01  1.497E+01  5.241E-02  1.223E+00
   1    8    6     5     4    9.7343E+00  1.3577E-01   9.5985E+00  0.000E+00  0.000E+00  0.000E+00  1.04691E+03  6.637E-01  1.482E+01  3.706E-02  1.221E+00
   1    9    6     6     1    2.4276E+01  2.5176E-01   2.4024E+01  0.000E+00  0.000E+00  0.000E+00  1.04392E+03  1.196E+00  1.200E+01  6.000E-02  1.399E+00
   1   10    7     6     2    2.4024E+01  2.5131E-01   2.3773E+01  0.000E+00  0.000E+00  0.000E+00  1.03937E+03  1.188E+00  1.200E+01  6.000E-02  1.396E+00
   1   11    7     6     3    2.3773E+01  2.5086E-01   2.3522E+01  0.000E+00  0.000E+00  0.000E+00  1.03482E+03  1.181E+00  1.200E+01  6.000E-02  1.394E+00
   1   12    7     6     4    2.3522E+01  2.5041E-01   2.3271E+01  0.000E+00  0.000E+00  0.000E+00  1.03026E+03  1.173E+00  1.200E+01  6.000E-02  1.391E+00
   1   13    7     6     5    2.3271E+01  1.1967E-02   2.3259E+01  0.000E+00  0.000E+00  0.000E+00  1.02708E+03  1.169E+00  1.200E+01  2.400E-02  1.662E-01
   1   14    9     7     1    1.5000E+02  1.3794E+00   1.4862E+02  0.000E+00  0.000E+00  0.000E+00  1.03987E+03  2.288E+00  5.529E+01  5.593E-01  8.221E-01
   1   13    8     7     2    1.4862E+02  1.9896E+00   1.4663E+02  0.000E+00  0.000E+00  0.000E+00  1.03478E+03  2.279E+00  5.525E+01  6.147E-01  1.079E+00
   1   13    7     7     3    1.4663E+02  1.7354E+00   1.4490E+02  0.000E+00  0.000E+00  0.000E+00  1.02969E+03  2.269E+00  5.521E+01  5.584E-01  1.036E+00
   1   13    6     8     1    1.6815E+02  1.1664E+00   1.6699E+02  0.000E+00  0.000E+00  0.000E+00  1.02481E+03  2.936E+00  4.258E+01  4.339E-01  8.961E-01
   1   13    5     8     2    1.6699E+02  4.0167E-01   1.6659E+02  0.000E+00  0.000E+00  0.000E+00  1.01856E+03  2.931E+00  4.250E+01  4.331E-01  3.091E-01
   1   13    4     8     3    1.6659E+02 -1.6756E+00   1.6826E+02  0.000E+00  0.000E+00  0.000E+00  1.01231E+03  2.935E+00  4.256E+01  4.337E+00 -1.288E-01
   1   13    3     8     4    1.6826E+02 -3.2806E+00   1.7154E+02  0.000E+00  0.000E+00  0.000E+00  1.00608E+03  2.952E+00  4.280E+01  4.361E+00 -2.507E-01
   1   13    2     8     5    1.7154E+02 -2.4834E+00   1.7403E+02  0.000E+00  0.000E+00  0.000E+00  9.99845E+02  2.970E+00  4.307E+01  4.389E+00 -1.886E-01
   1   13    1     8     6    1.7403E+02 -1.9571E+00   1.7598E+02  0.000E+00  0.000E+00  0.000E+00  9.94859E+02  2.985E+00  4.328E+01  2.646E+00 -2.466E-01





UNSATURATED ZONE PACKAGE VOLUMETRIC BUDGET FOR  TIME STEP    30 STRESS PERIOD   47
  ------------------------------------------------------------------------------



     CUMULATIVE VOLUMES      L**3       RATES FOR THIS TIME STEP      L**3/T
     ------------------                 ------------------------

           IN:                                      IN:
           ---                                      ---
        INFILTRATION =  1842795520.3824          INFILTRATION =           0.8475

          OUT:                                     OUT:
          ----                                     ----
              UZF ET =  1690992957.9206                UZF ET =           0.8475
        UZF RECHARGE =   151300357.3701          UZF RECHARGE =           2.4040

            IN - OUT =      502205.0917              IN - OUT =          -2.4040

          STORAGE:                                 STORAGE:
          --------                                 --------
      STORAGE CHANGE =      502207.4245        STORAGE CHANGE =          -2.4040

 PERCENT DISCREPANCY IS DIFFERENCE BETWEEN IN-OUT MINUS CHANGE IN STORAGE
 DIVIDED BY THE AVERAGE OF IN AND OUT TIMES 100

 PERCENT DISCREPANCY =           0.00     PERCENT DISCREPANCY =           0.00






1
  VOLUMETRIC BUDGET FOR AGRICULTURAL FIELDS AT  END OF TIME STEP   30, STRESS PERIOD  47
  ------------------------------------------------------------------------------

     CUMULATIVE VOLUMES      L**3       RATES FOR THIS TIME STEP      L**3/T
     ------------------                 ------------------------

           IN:                                      IN:
           ---                                      ---
               AG WELLS  =  1740194176.0000                 AG WELLS  =           0.0000
      DIVERSION SEGMENTS =           0.0000        DIVERSION SEGMENTS =           0.0000
       IRRIGATION PONDS  =           0.0000         IRRIGATION PONDS  =           0.0000
           GW IRRIGATION =           0.0000             GW IRRIGATION =           0.0000
           SW IRRIGATION =           0.0000             SW IRRIGATION =           0.0000
        SYSTEM LOSSES GW =           0.0000          SYSTEM LOSSES GW =           0.0000
        SYSTEM LOSSES SW =           0.0000          SYSTEM LOSSES SW =           0.0000

                TOTAL IN =  1740194176.0000                  TOTAL IN =           0.0000

          OUT:                                     OUT:
          ----                                     ----
               AG WELLS  =           0.0000                 AG WELLS  =           0.0000
      DIVERSION SEGMENTS =           0.0000        DIVERSION SEGMENTS =           0.0000
       IRRIGATION PONDS  =           0.0000         IRRIGATION PONDS  =           0.0000
           GW IRRIGATION =  1740194176.0000             GW IRRIGATION =           0.0000
           SW IRRIGATION =           0.0000             SW IRRIGATION =           0.0000
        SYSTEM LOSSES GW =           0.0000          SYSTEM LOSSES GW =           0.0000
        SYSTEM LOSSES SW =           0.0000          SYSTEM LOSSES SW =           0.0000

               TOTAL OUT =  1740194176.0000                 TOTAL OUT =           0.0000

                IN - OUT =           0.0000                  IN - OUT =           0.0000

     PERCENT DISCREPANCY =           0.00         PERCENT DISCREPANCY =           0.00



1
  VOLUMETRIC BUDGET FOR ENTIRE MODEL AT END OF TIME STEP   30, STRESS PERIOD  47
  ------------------------------------------------------------------------------

     CUMULATIVE VOLUMES      L**3       RATES FOR THIS TIME STEP      L**3/T
     ------------------                 ------------------------

           IN:                                      IN:
           ---                                      ---
             STORAGE     =  2251712768.0000               STORAGE     =          11.5578
       CONSTANT HEAD     =           0.0000         CONSTANT HEAD     =           0.0000
     HEAD DEP BOUNDS     =    34664332.0000       HEAD DEP BOUNDS     =           0.2887
      STREAM LEAKAGE     =  1484124288.0000        STREAM LEAKAGE     =          12.4131
        UZF RECHARGE     =   151300432.0000          UZF RECHARGE     =           2.4040
               GW ET     =           0.0000                 GW ET     =           0.0000
     SURFACE LEAKAGE     =           0.0000       SURFACE LEAKAGE     =           0.0000
           AG WELLS      =           0.0000             AG WELLS      =           0.0000

                TOTAL IN =  3921801984.0000                  TOTAL IN =          26.6637

          OUT:                                     OUT:
          ----                                     ----
             STORAGE     =   906480576.0000               STORAGE     =          16.9781
       CONSTANT HEAD     =           0.0000         CONSTANT HEAD     =           0.0000
     HEAD DEP BOUNDS     =    35310504.0000       HEAD DEP BOUNDS     =           0.2888
      STREAM LEAKAGE     =  1222216704.0000        STREAM LEAKAGE     =           9.3968
        UZF RECHARGE     =           0.0000          UZF RECHARGE     =           0.0000
               GW ET     =    17607784.0000                 GW ET     =           0.0000
     SURFACE LEAKAGE     =           0.0000       SURFACE LEAKAGE     =           0.0000
           AG WELLS      =  1740194176.0000             AG WELLS      =           0.0000

               TOTAL OUT =  3921809920.0000                 TOTAL OUT =          26.6636

                IN - OUT =       -7936.0000                  IN - OUT =       2.4796E-05

     PERCENT DISCREPANCY =          -0.00         PERCENT DISCREPANCY =           0.00






         TIME SUMMARY AT END OF TIME STEP   30 IN STRESS PERIOD   47
                    SECONDS     MINUTES      HOURS       DAYS        YEARS
                    -----------------------------------------------------------
   TIME STEP LENGTH  87667.      1461.1      24.352      1.0147     2.77799E-03
 STRESS PERIOD TIME 2.63000E+06  43833.      730.56      30.440     8.33397E-02
         TOTAL TIME 1.21065E+08 2.01775E+06  33629.      1401.2      3.8363    
1
1
                            STRESS PERIOD NO.   48, LENGTH =   2630000.    
                            -----------------------------------------------

                              NUMBER OF TIME STEPS =    30

                               MULTIPLIER FOR DELT =     1.000

                            INITIAL TIME STEP SIZE =   87666.66    

 REUSING NON-PARAMETER GHB CELLS FROM LAST STRESS PERIOD

      2 GHB CELLS

 REUSING STREAM SEGMENT DATA FROM LAST STRESS PERIOD



            AREAL INFILTRATION RATE
 READING ON UNIT   19 WITH FORMAT: (FREE)              

            1           2           3           4           5           6           7           8           9          10
 ........................................................................................................................
   1   1.0000E-10  2.0000E-10   0.000       0.000       0.000       0.000       0.000       0.000       0.000       0.000    
   2   2.0000E-10  1.0000E-10  2.0000E-10   0.000       0.000      8.0000E-10  8.0000E-10  5.0000E-10   0.000       0.000    
   3    0.000      5.0000E-10  1.0000E-10  1.0000E-10  8.0000E-10  8.0000E-10  5.0000E-10  5.0000E-10   0.000       0.000    
   4   8.0000E-10  5.0000E-10  1.0000E-10  1.0000E-10  1.0000E-10  1.0000E-10  1.0000E-10  1.0000E-10  2.0000E-10   0.000    
   5   8.0000E-10  5.0000E-10  1.0000E-10  1.0000E-10  1.0000E-10  1.0000E-10  1.0000E-10  1.0000E-10  1.0000E-10  1.0000E-10
   6   8.0000E-10  5.0000E-10  5.0000E-10  2.0000E-10  2.0000E-10  1.0000E-10  1.0000E-10  1.0000E-10  1.0000E-10  5.0000E-10
   7   8.0000E-10  5.0000E-10  5.0000E-10  2.0000E-10  2.0000E-10  1.0000E-10  1.0000E-10  2.0000E-10  2.0000E-10   0.000    
   8    0.000      5.0000E-10  5.0000E-10  2.0000E-10  2.0000E-10  1.0000E-10  1.0000E-10  2.0000E-10  5.0000E-10   0.000    
   9    0.000      5.0000E-10  5.0000E-10  2.0000E-10  2.0000E-10  1.0000E-10  1.0000E-10  2.0000E-10  5.0000E-10   0.000    
  10    0.000      5.0000E-10  5.0000E-10  2.0000E-10  2.0000E-10  1.0000E-10  1.0000E-10  2.0000E-10  5.0000E-10  8.0000E-10
  11    0.000      1.0000E-10  1.0000E-10  1.0000E-10  1.0000E-10  1.0000E-10  1.0000E-10  2.0000E-10  5.0000E-10   0.000    
  12   1.0000E-10  1.0000E-10  1.0000E-10  1.0000E-10  1.0000E-10  1.0000E-10  1.0000E-10  1.0000E-10  2.0000E-10   0.000    
  13   1.0000E-10  1.0000E-10  2.0000E-10  2.0000E-10  2.0000E-10  2.0000E-10  2.0000E-10  1.0000E-10  1.0000E-10   0.000    
  14    0.000      2.0000E-10  5.0000E-10  5.0000E-10  5.0000E-10  5.0000E-10  5.0000E-10  2.0000E-10  1.0000E-10   0.000    
  15    0.000       0.000      8.0000E-10  8.0000E-10  8.0000E-10  8.0000E-10   0.000       0.000       0.000       0.000    

                  ET RATE =  5.000000E-10

 USING ET EXTINCTION DEPTH FROM PREVIOUS STRESS PERIOD. CURRENT PERIOD IS:      48

 USING EXTINCTION WATER CONTENT FROM PREVIOUS STRESS PERIOD. CURRENT PERIOD IS:      48

 USING AIR ENTRY PRESSURE FROM PREVIOUS STRESS PERIOD. CURRENT PERIOD IS:      48

 USING ROOT PRESSURE HEAD FROM PREVIOUS STRESS PERIOD. CURRENT PERIOD IS:      48

 USING ROOT ACTIVITY FROM PREVIOUS STRESS PERIOD. CURRENT PERIOD IS:      48

 PROCESSING AG STRESS PERIOD DATA

 READING AG STRESS PERIOD DATA

 READING IRRIGATION WELL

 NO IRRPOND OR REUSING IRRPOND DATA FROM LAST STRESS PERIOD

 END PROCESSING AG STRESS PERIOD DATA OPTIONS
 
 SOLVING FOR HEAD 
                                                   Max.-Head-Change                         Max.-Flux-Residual
  Residual-Control   Outer-Iter.   Inner-Iter.     Column Row Layer    Maximum-Head-Change  Column Row Layer    Maximum-Flux-Residual          L2-NORM 
          0                 1           2             4    6     1       0.6552494375E-01       4    6    1         0.3509497291E+01      0.5670159564E+01
          0                 2           2             4    6     1      -0.6370531386E-02       4    6    1        -0.3507712315E+00      0.5667736934E+00
          0                 3           2             4    6     1       0.4334887724E-03       4    6    1         0.2453575350E-01      0.3965018117E-01
          0                 4           1             4    6     1      -0.1722779198E-04       4    6    1        -0.1002278069E-02      0.1620067403E-02

    ------------------------------------------------
       NWT REQUIRED            4 OUTER ITERATIONS 
       AND A TOTAL OF          7 INNER ITERATIONS.
    ------------------------------------------------

 NO OUTPUT CONTROL FOR STRESS PERIOD   48   TIME STEP    1
 
 SOLVING FOR HEAD 
                                                   Max.-Head-Change                         Max.-Flux-Residual
  Residual-Control   Outer-Iter.   Inner-Iter.     Column Row Layer    Maximum-Head-Change  Column Row Layer    Maximum-Flux-Residual          L2-NORM 
          0                 1           2             4    6     1       0.6361156318E-01       4    6    1         0.3404524857E+01      0.5586031814E+01
          0                 2           2             4    6     1      -0.6184501196E-02       4    6    1        -0.3402789303E+00      0.5583649272E+00
          0                 3           2             4    6     1       0.4208300472E-03       4    6    1         0.2380182739E-01      0.3906200194E-01
          0                 4           1             4    6     1      -0.1672469622E-04       4    6    1        -0.9722965137E-03      0.1596038856E-02

    ------------------------------------------------
       NWT REQUIRED            4 OUTER ITERATIONS 
       AND A TOTAL OF          7 INNER ITERATIONS.
    ------------------------------------------------

 NO OUTPUT CONTROL FOR STRESS PERIOD   48   TIME STEP    2
 
 SOLVING FOR HEAD 
                                                   Max.-Head-Change                         Max.-Flux-Residual
  Residual-Control   Outer-Iter.   Inner-Iter.     Column Row Layer    Maximum-Head-Change  Column Row Layer    Maximum-Flux-Residual          L2-NORM 
          0                 1           2             4    7     1       0.4058580267E-01       4    7    1         0.2147800496E+01      0.4494917034E+01
          0                 2           2             4    7     1      -0.3945807760E-02       4    7    1        -0.2146671523E+00      0.4493221644E+00
          0                 3           2             4    7     1       0.2684934640E-03       4    7    1         0.1501542962E-01      0.3143595623E-01
          0                 4           1             4    7     1      -0.1067030116E-04       4    7    1        -0.6133664888E-03      0.1284597803E-02

    ------------------------------------------------
       NWT REQUIRED            4 OUTER ITERATIONS 
       AND A TOTAL OF          7 INNER ITERATIONS.
    ------------------------------------------------

 NO OUTPUT CONTROL FOR STRESS PERIOD   48   TIME STEP    3
 
 SOLVING FOR HEAD 
                                                   Max.-Head-Change                         Max.-Flux-Residual
  Residual-Control   Outer-Iter.   Inner-Iter.     Column Row Layer    Maximum-Head-Change  Column Row Layer    Maximum-Flux-Residual          L2-NORM 
          0                 1           2             4    7     1       0.3986653935E-01       4    7    1         0.2108734669E+01      0.4441407358E+01
          0                 2           2             4    7     1      -0.3875878067E-02       4    7    1        -0.2107624965E+00      0.4439728364E+00
          0                 3           2             4    7     1       0.2637350084E-03       4    7    1         0.1474230414E-01      0.3106166399E-01
          0                 4           1             4    7     1      -0.1048118773E-04       4    7    1        -0.6022092016E-03      0.1269305797E-02

    ------------------------------------------------
       NWT REQUIRED            4 OUTER ITERATIONS 
       AND A TOTAL OF          7 INNER ITERATIONS.
    ------------------------------------------------

 NO OUTPUT CONTROL FOR STRESS PERIOD   48   TIME STEP    4
 
 SOLVING FOR HEAD 
                                                   Max.-Head-Change                         Max.-Flux-Residual
  Residual-Control   Outer-Iter.   Inner-Iter.     Column Row Layer    Maximum-Head-Change  Column Row Layer    Maximum-Flux-Residual          L2-NORM 
          0                 1           2             4    7     1       0.3917767756E-01       4    7    1         0.2071362033E+01      0.4389573095E+01
          0                 2           2             4    7     1      -0.3808904207E-02       4    7    1        -0.2070270807E+00      0.4387910303E+00
          0                 3           2             4    7     1       0.2591776901E-03       4    7    1         0.1448101700E-01      0.3069910253E-01
          0                 4           1             4    7     1      -0.1030006887E-04       4    7    1        -0.5915355346E-03      0.1254487994E-02

    ------------------------------------------------
       NWT REQUIRED            4 OUTER ITERATIONS 
       AND A TOTAL OF          7 INNER ITERATIONS.
    ------------------------------------------------

 NO OUTPUT CONTROL FOR STRESS PERIOD   48   TIME STEP    5
 
 SOLVING FOR HEAD 
                                                   Max.-Head-Change                         Max.-Flux-Residual
  Residual-Control   Outer-Iter.   Inner-Iter.     Column Row Layer    Maximum-Head-Change  Column Row Layer    Maximum-Flux-Residual          L2-NORM 
          0                 1           2             4    7     1       0.3851713800E-01       4    7    1         0.2035565664E+01      0.4339291187E+01
          0                 2           2             4    7     1      -0.3744684014E-02       4    7    1        -0.2034492180E+00      0.4337644357E+00
          0                 3           2             4    7     1       0.2548077514E-03       4    7    1         0.1423075066E-01      0.3034740054E-01
          0                 4           1             4    7     1      -0.1012639681E-04       4    7    1        -0.5813120692E-03      0.1240113715E-02

    ------------------------------------------------
       NWT REQUIRED            4 OUTER ITERATIONS 
       AND A TOTAL OF          7 INNER ITERATIONS.
    ------------------------------------------------

 NO OUTPUT CONTROL FOR STRESS PERIOD   48   TIME STEP    6
 
 SOLVING FOR HEAD 
                                                   Max.-Head-Change                         Max.-Flux-Residual
  Residual-Control   Outer-Iter.   Inner-Iter.     Column Row Layer    Maximum-Head-Change  Column Row Layer    Maximum-Flux-Residual          L2-NORM 
          0                 1           2             4    7     1       0.3788326781E-01       4    7    1         0.2001252282E+01      0.4290456613E+01
          0                 2           2             4    7     1      -0.3683056785E-02       4    7    1        -0.2000195845E+00      0.4288825865E+00
          0                 3           2             4    7     1       0.2506142572E-03       4    7    1         0.1399085291E-01      0.3000584408E-01
          0                 4           1             4    7     1      -0.9959737292E-05       4    7    1        -0.5715122047E-03      0.1226157555E-02

    ------------------------------------------------
       NWT REQUIRED            4 OUTER ITERATIONS 
       AND A TOTAL OF          7 INNER ITERATIONS.
    ------------------------------------------------

 NO OUTPUT CONTROL FOR STRESS PERIOD   48   TIME STEP    7
 
 SOLVING FOR HEAD 
                                                   Max.-Head-Change                         Max.-Flux-Residual
  Residual-Control   Outer-Iter.   Inner-Iter.     Column Row Layer    Maximum-Head-Change  Column Row Layer    Maximum-Flux-Residual          L2-NORM 
          0                 1           2             4    7     1       0.3727415231E-01       4    7    1         0.1968314397E+01      0.4242966802E+01
          0                 2           2             4    7     1      -0.3623836362E-02       4    7    1        -0.1967274364E+00      0.4241351652E+00
          0                 3           2             4    7     1       0.2465845392E-03       4    7    1         0.1376057220E-01      0.2967367050E-01
          0                 4           1             4    7     1      -0.9799587201E-05       4    7    1        -0.5621051796E-03      0.1219489885E-02

    ------------------------------------------------
       NWT REQUIRED            4 OUTER ITERATIONS 
       AND A TOTAL OF          7 INNER ITERATIONS.
    ------------------------------------------------

 NO OUTPUT CONTROL FOR STRESS PERIOD   48   TIME STEP    8
 
 SOLVING FOR HEAD 
                                                   Max.-Head-Change                         Max.-Flux-Residual
  Residual-Control   Outer-Iter.   Inner-Iter.     Column Row Layer    Maximum-Head-Change  Column Row Layer    Maximum-Flux-Residual          L2-NORM 
          0                 1           2             4    7     1       0.3668842375E-01       4    7    1         0.1936674529E+01      0.4196740922E+01
          0                 2           2             4    7     1      -0.3566889761E-02       4    7    1        -0.1935650290E+00      0.4195141317E+00
          0                 3           2             4    7     1       0.2427095490E-03       4    7    1         0.1353936683E-01      0.2935035524E-01
          0                 4           1             4    7     1      -0.9645586306E-05       4    7    1        -0.5530689268E-03      0.1199374858E-02

    ------------------------------------------------
       NWT REQUIRED            4 OUTER ITERATIONS 
       AND A TOTAL OF          7 INNER ITERATIONS.
    ------------------------------------------------

 NO OUTPUT CONTROL FOR STRESS PERIOD   48   TIME STEP    9
 
 SOLVING FOR HEAD 
                                                   Max.-Head-Change                         Max.-Flux-Residual
  Residual-Control   Outer-Iter.   Inner-Iter.     Column Row Layer    Maximum-Head-Change  Column Row Layer    Maximum-Flux-Residual          L2-NORM 
          0                 1           2             4    7     1       0.3612429060E-01       4    7    1         0.1906232704E+01      0.4151690800E+01
          0                 2           2             4    7     1      -0.3512042798E-02       4    7    1        -0.1905223697E+00      0.4150106525E+00
          0                 3           2             4    7     1       0.2389774328E-03       4    7    1         0.1332653776E-01      0.2903524744E-01
          0                 4           1             4    7     1      -0.9497263734E-05       4    7    1        -0.5443748464E-03      0.1186483429E-02

    ------------------------------------------------
       NWT REQUIRED            4 OUTER ITERATIONS 
       AND A TOTAL OF          7 INNER ITERATIONS.
    ------------------------------------------------

 NO OUTPUT CONTROL FOR STRESS PERIOD   48   TIME STEP   10
 
 SOLVING FOR HEAD 
                                                   Max.-Head-Change                         Max.-Flux-Residual
  Residual-Control   Outer-Iter.   Inner-Iter.     Column Row Layer    Maximum-Head-Change  Column Row Layer    Maximum-Flux-Residual          L2-NORM 
          0                 1           2             4    7     1       0.3558061918E-01       4    7    1         0.1876925095E+01      0.4107751873E+01
          0                 2           2             4    7     1      -0.3459185250E-02       4    7    1        -0.1875930786E+00      0.4106182947E+00
          0                 3           2             4    7     1       0.2353806907E-03       4    7    1         0.1312163878E-01      0.2872793188E-01
          0                 4           1             4    7     1      -0.9354320845E-05       4    7    1        -0.5360046935E-03      0.1173926654E-02

    ------------------------------------------------
       NWT REQUIRED            4 OUTER ITERATIONS 
       AND A TOTAL OF          7 INNER ITERATIONS.
    ------------------------------------------------

 NO OUTPUT CONTROL FOR STRESS PERIOD   48   TIME STEP   11
 
 SOLVING FOR HEAD 
                                                   Max.-Head-Change                         Max.-Flux-Residual
  Residual-Control   Outer-Iter.   Inner-Iter.     Column Row Layer    Maximum-Head-Change  Column Row Layer    Maximum-Flux-Residual          L2-NORM 
          0                 1           2             4    7     1       0.3505610975E-01       4    7    1         0.1848678392E+01      0.4064857665E+01
          0                 2           2             4    7     1      -0.3408190745E-02       4    7    1        -0.1847698280E+00      0.4063303855E+00
          0                 3           2             4    7     1       0.2319107240E-03       4    7    1         0.1292415728E-01      0.2842792973E-01
          0                 4           1             4    7     1      -0.9216417552E-05       4    7    1        -0.5279376051E-03      0.1161668586E-02

    ------------------------------------------------
       NWT REQUIRED            4 OUTER ITERATIONS 
       AND A TOTAL OF          7 INNER ITERATIONS.
    ------------------------------------------------

 NO OUTPUT CONTROL FOR STRESS PERIOD   48   TIME STEP   12
 
 SOLVING FOR HEAD 
                                                   Max.-Head-Change                         Max.-Flux-Residual
  Residual-Control   Outer-Iter.   Inner-Iter.     Column Row Layer    Maximum-Head-Change  Column Row Layer    Maximum-Flux-Residual          L2-NORM 
          0                 1           2             4    7     1       0.3454955843E-01       4    7    1         0.1821425205E+01      0.4022954688E+01
          0                 2           2             4    7     1      -0.3358942233E-02       4    7    1        -0.1820458822E+00      0.4021415949E+00
          0                 3           2             4    7     1       0.2285595663E-03       4    7    1         0.1273362208E-01      0.2813486786E-01
          0                 4           1             4    7     1      -0.9083235180E-05       4    7    1        -0.5201542499E-03      0.1149694942E-02

    ------------------------------------------------
       NWT REQUIRED            4 OUTER ITERATIONS 
       AND A TOTAL OF          7 INNER ITERATIONS.
    ------------------------------------------------

 NO OUTPUT CONTROL FOR STRESS PERIOD   48   TIME STEP   13
 
 SOLVING FOR HEAD 
                                                   Max.-Head-Change                         Max.-Flux-Residual
  Residual-Control   Outer-Iter.   Inner-Iter.     Column Row Layer    Maximum-Head-Change  Column Row Layer    Maximum-Flux-Residual          L2-NORM 
          0                 1           2             4    7     1       0.3405998463E-01       4    7    1         0.1795110382E+01      0.3981983360E+01
          0                 2           2             4    7     1      -0.3311344375E-02       4    7    1        -0.1794157283E+00      0.3980459491E+00
          0                 3           2             4    7     1       0.2253207308E-03       4    7    1         0.1254964758E-01      0.2784832492E-01
          0                 4           1             4    7     1      -0.8954517227E-05       4    7    1        -0.5126389096E-03      0.1137992832E-02

    ------------------------------------------------
       NWT REQUIRED            4 OUTER ITERATIONS 
       AND A TOTAL OF          7 INNER ITERATIONS.
    ------------------------------------------------

 NO OUTPUT CONTROL FOR STRESS PERIOD   48   TIME STEP   14
 
 SOLVING FOR HEAD 
                                                   Max.-Head-Change                         Max.-Flux-Residual
  Residual-Control   Outer-Iter.   Inner-Iter.     Column Row Layer    Maximum-Head-Change  Column Row Layer    Maximum-Flux-Residual          L2-NORM 
          0                 1           2             4    7     1       0.3358621972E-01       4    7    1         0.1769668546E+01      0.3941898242E+01
          0                 2           2             4    7     1      -0.3265283548E-02       4    7    1        -0.1768728319E+00      0.3940388923E+00
          0                 3           2             4    7     1       0.2221864859E-03       4    7    1         0.1237177668E-01      0.2756796130E-01
          0                 4           1             4    7     1      -0.8829956417E-05       4    7    1        -0.5053729242E-03      0.1126528839E-02

    ------------------------------------------------
       NWT REQUIRED            4 OUTER ITERATIONS 
       AND A TOTAL OF          7 INNER ITERATIONS.
    ------------------------------------------------

 NO OUTPUT CONTROL FOR STRESS PERIOD   48   TIME STEP   15
 
 SOLVING FOR HEAD 
                                                   Max.-Head-Change                         Max.-Flux-Residual
  Residual-Control   Outer-Iter.   Inner-Iter.     Column Row Layer    Maximum-Head-Change  Column Row Layer    Maximum-Flux-Residual          L2-NORM 
          0                 1           2             4    7     1       0.3312744581E-01       4    7    1         0.1745053641E+01      0.3902660134E+01
          0                 2           2             4    7     1      -0.3220680231E-02       4    7    1        -0.1744125892E+00      0.3901165685E+00
          0                 3           2             4    7     1       0.2191514201E-03       4    7    1         0.1219968738E-01      0.2729354398E-01
          0                 4           1             4    7     1      -0.8709336884E-05       4    7    1        -0.4983431127E-03      0.1115315102E-02

    ------------------------------------------------
       NWT REQUIRED            4 OUTER ITERATIONS 
       AND A TOTAL OF          7 INNER ITERATIONS.
    ------------------------------------------------

 NO OUTPUT CONTROL FOR STRESS PERIOD   48   TIME STEP   16
 
 SOLVING FOR HEAD 
                                                   Max.-Head-Change                         Max.-Flux-Residual
  Residual-Control   Outer-Iter.   Inner-Iter.     Column Row Layer    Maximum-Head-Change  Column Row Layer    Maximum-Flux-Residual          L2-NORM 
          0                 1           2             4    7     1       0.3268290661E-01       4    7    1         0.1721223264E+01      0.3864231632E+01
          0                 2           2             4    7     1      -0.3177460891E-02       4    7    1        -0.1720307620E+00      0.3862751659E+00
          0                 3           2             4    7     1       0.2162105298E-03       4    7    1         0.1203308317E-01      0.2702479196E-01
          0                 4           1             4    7     1      -0.8592460381E-05       4    7    1        -0.4915373779E-03      0.1104330549E-02

    ------------------------------------------------
       NWT REQUIRED            4 OUTER ITERATIONS 
       AND A TOTAL OF          7 INNER ITERATIONS.
    ------------------------------------------------

 NO OUTPUT CONTROL FOR STRESS PERIOD   48   TIME STEP   17
 
 SOLVING FOR HEAD 
                                                   Max.-Head-Change                         Max.-Flux-Residual
  Residual-Control   Outer-Iter.   Inner-Iter.     Column Row Layer    Maximum-Head-Change  Column Row Layer    Maximum-Flux-Residual          L2-NORM 
          0                 1           2             4    7     1       0.3225163786E-01       4    7    1         0.1698123661E+01      0.3826569071E+01
          0                 2           2             4    7     1      -0.3135531777E-02       4    7    1        -0.1697219773E+00      0.3825103466E+00
          0                 3           2             4    7     1       0.2133574348E-03       4    7    1         0.1187158824E-01      0.2676140134E-01
          0                 4           1             4    7     1      -0.8479072589E-05       4    7    1        -0.4849403435E-03      0.1093574856E-02

    ------------------------------------------------
       NWT REQUIRED            4 OUTER ITERATIONS 
       AND A TOTAL OF          7 INNER ITERATIONS.
    ------------------------------------------------

 NO OUTPUT CONTROL FOR STRESS PERIOD   48   TIME STEP   18
 
 SOLVING FOR HEAD 
                                                   Max.-Head-Change                         Max.-Flux-Residual
  Residual-Control   Outer-Iter.   Inner-Iter.     Column Row Layer    Maximum-Head-Change  Column Row Layer    Maximum-Flux-Residual          L2-NORM 
          0                 1           2             4    7     1       0.3183287748E-01       4    7    1         0.1675712108E+01      0.3789640266E+01
          0                 2           2             4    7     1      -0.3094818796E-02       4    7    1        -0.1674819648E+00      0.3788188775E+00
          0                 3           2             4    7     1       0.2105870945E-03       4    7    1         0.1171490387E-01      0.2650311739E-01
          0                 4           1             4    7     1      -0.8368974568E-05       4    7    1        -0.4785398601E-03      0.1083010858E-02

    ------------------------------------------------
       NWT REQUIRED            4 OUTER ITERATIONS 
       AND A TOTAL OF          7 INNER ITERATIONS.
    ------------------------------------------------

 NO OUTPUT CONTROL FOR STRESS PERIOD   48   TIME STEP   19
 
 SOLVING FOR HEAD 
                                                   Max.-Head-Change                         Max.-Flux-Residual
  Residual-Control   Outer-Iter.   Inner-Iter.     Column Row Layer    Maximum-Head-Change  Column Row Layer    Maximum-Flux-Residual          L2-NORM 
          0                 1           2             4    7     1       0.3142605440E-01       4    7    1         0.1653956361E+01      0.3753427420E+01
          0                 2           2             4    7     1      -0.3055266421E-02       4    7    1        -0.1653075015E+00      0.3751990290E+00
          0                 3           2             4    7     1       0.2078957291E-03       4    7    1         0.1156280462E-01      0.2624989246E-01
          0                 4           1             4    7     1      -0.8262014465E-05       4    7    1        -0.4723266470E-03      0.1072667894E-02

    ------------------------------------------------
       NWT REQUIRED            4 OUTER ITERATIONS 
       AND A TOTAL OF          7 INNER ITERATIONS.
    ------------------------------------------------

 NO OUTPUT CONTROL FOR STRESS PERIOD   48   TIME STEP   20
 
 SOLVING FOR HEAD 
                                                   Max.-Head-Change                         Max.-Flux-Residual
  Residual-Control   Outer-Iter.   Inner-Iter.     Column Row Layer    Maximum-Head-Change  Column Row Layer    Maximum-Flux-Residual          L2-NORM 
          0                 1           2             4    7     1       0.3103050162E-01       4    7    1         0.1632819543E+01      0.3717881955E+01
          0                 2           2             4    7     1      -0.3016809804E-02       4    7    1        -0.1631949013E+00      0.3716458886E+00
          0                 3           2             4    7     1       0.2052789266E-03       4    7    1         0.1141503261E-01      0.2600130413E-01
          0                 4           1             4    7     1      -0.8158018552E-05       4    7    1        -0.4662902434E-03      0.1062511610E-02

    ------------------------------------------------
       NWT REQUIRED            4 OUTER ITERATIONS 
       AND A TOTAL OF          7 INNER ITERATIONS.
    ------------------------------------------------

 NO OUTPUT CONTROL FOR STRESS PERIOD   48   TIME STEP   21
 
 SOLVING FOR HEAD 
                                                   Max.-Head-Change                         Max.-Flux-Residual
  Residual-Control   Outer-Iter.   Inner-Iter.     Column Row Layer    Maximum-Head-Change  Column Row Layer    Maximum-Flux-Residual          L2-NORM 
          0                 1           2             4    7     1       0.3064574212E-01       4    7    1         0.1612274342E+01      0.3682997723E+01
          0                 2           2             4    7     1      -0.2979402563E-02       4    7    1        -0.1611414344E+00      0.3681588438E+00
          0                 3           2             4    7     1       0.2027335304E-03       4    7    1         0.1127139694E-01      0.2575735316E-01
          0                 4           1             4    7     1      -0.8056859614E-05       4    7    1        -0.4604227743E-03      0.1052548846E-02

    ------------------------------------------------
       NWT REQUIRED            4 OUTER ITERATIONS 
       AND A TOTAL OF          7 INNER ITERATIONS.
    ------------------------------------------------

 NO OUTPUT CONTROL FOR STRESS PERIOD   48   TIME STEP   22
 
 SOLVING FOR HEAD 
                                                   Max.-Head-Change                         Max.-Flux-Residual
  Residual-Control   Outer-Iter.   Inner-Iter.     Column Row Layer    Maximum-Head-Change  Column Row Layer    Maximum-Flux-Residual          L2-NORM 
          0                 1           2             4    7     1       0.3027093089E-01       4    7    1         0.1592274209E+01      0.3648742145E+01
          0                 2           2             4    7     1      -0.2942962544E-02       4    7    1        -0.1591424480E+00      0.3647346694E+00
          0                 3           2             4    7     1       0.2002539510E-03       4    7    1         0.1113157214E-01      0.2551778776E-01
          0                 4           1             4    7     1      -0.7958317065E-05       4    7    1        -0.4547110102E-03      0.1077933583E-02

    ------------------------------------------------
       NWT REQUIRED            4 OUTER ITERATIONS 
       AND A TOTAL OF          7 INNER ITERATIONS.
    ------------------------------------------------

 NO OUTPUT CONTROL FOR STRESS PERIOD   48   TIME STEP   23
 
 SOLVING FOR HEAD 
                                                   Max.-Head-Change                         Max.-Flux-Residual
  Residual-Control   Outer-Iter.   Inner-Iter.     Column Row Layer    Maximum-Head-Change  Column Row Layer    Maximum-Flux-Residual          L2-NORM 
          0                 1           2             4    7     1       0.2990580705E-01       4    7    1         0.1572804420E+01      0.3615087184E+01
          0                 2           2             4    7     1      -0.2907464380E-02       4    7    1        -0.1571964704E+00      0.3613705365E+00
          0                 3           2             4    7     1       0.1978384614E-03       4    7    1         0.1099545526E-01      0.2528244117E-01
          0                 4           1             4    7     1      -0.7862321600E-05       4    7    1        -0.4491506966E-03      0.1033211984E-02

    ------------------------------------------------
       NWT REQUIRED            4 OUTER ITERATIONS 
       AND A TOTAL OF          7 INNER ITERATIONS.
    ------------------------------------------------

 NO OUTPUT CONTROL FOR STRESS PERIOD   48   TIME STEP   24
 
 SOLVING FOR HEAD 
                                                   Max.-Head-Change                         Max.-Flux-Residual
  Residual-Control   Outer-Iter.   Inner-Iter.     Column Row Layer    Maximum-Head-Change  Column Row Layer    Maximum-Flux-Residual          L2-NORM 
          0                 1           2             4    7     1       0.2954974085E-01       4    7    1         0.1553829632E+01      0.3582023409E+01
          0                 2           2             4    7     1      -0.2872846843E-02       4    7    1        -0.1552999688E+00      0.3580653394E+00
          0                 3           2             4    7     1       0.1954828949E-03       4    7    1         0.1086279914E-01      0.2505104503E-01
          0                 4           1             4    7     1      -0.7768707203E-05       4    7    1        -0.4437317607E-03      0.1023672299E-02

    ------------------------------------------------
       NWT REQUIRED            4 OUTER ITERATIONS 
       AND A TOTAL OF          7 INNER ITERATIONS.
    ------------------------------------------------

 NO OUTPUT CONTROL FOR STRESS PERIOD   48   TIME STEP   25
 
 SOLVING FOR HEAD 
                                                   Max.-Head-Change                         Max.-Flux-Residual
  Residual-Control   Outer-Iter.   Inner-Iter.     Column Row Layer    Maximum-Head-Change  Column Row Layer    Maximum-Flux-Residual          L2-NORM 
          0                 1           2             4    7     1       0.2920253924E-01       4    7    1         0.1535339014E+01      0.3549527242E+01
          0                 2           2             4    7     1      -0.2839091164E-02       4    7    1        -0.1534518608E+00      0.3548172319E+00
          0                 3           2             4    7     1       0.1931859754E-03       4    7    1         0.1073352811E-01      0.2482397146E-01
          0                 4           1             4    7     1      -0.7677424141E-05       4    7    1        -0.4384511294E-03      0.1014396663E-02

    ------------------------------------------------
       NWT REQUIRED            4 OUTER ITERATIONS 
       AND A TOTAL OF          7 INNER ITERATIONS.
    ------------------------------------------------

 NO OUTPUT CONTROL FOR STRESS PERIOD   48   TIME STEP   26
 
 SOLVING FOR HEAD 
                                                   Max.-Head-Change                         Max.-Flux-Residual
  Residual-Control   Outer-Iter.   Inner-Iter.     Column Row Layer    Maximum-Head-Change  Column Row Layer    Maximum-Flux-Residual          L2-NORM 
          0                 1           2             4    7     1       0.2886349578E-01       4    7    1         0.1517293461E+01      0.3517581877E+01
          0                 2           2             4    7     1      -0.2806128657E-02       4    7    1        -0.1516482376E+00      0.3516240266E+00
          0                 3           2             4    7     1       0.1909430276E-03       4    7    1         0.1060736874E-01      0.2460057730E-01
          0                 4           1             4    7     1      -0.7588285905E-05       4    7    1        -0.4332975768E-03      0.1005279487E-02

    ------------------------------------------------
       NWT REQUIRED            4 OUTER ITERATIONS 
       AND A TOTAL OF          7 INNER ITERATIONS.
    ------------------------------------------------

 NO OUTPUT CONTROL FOR STRESS PERIOD   48   TIME STEP   27
 
 SOLVING FOR HEAD 
                                                   Max.-Head-Change                         Max.-Flux-Residual
  Residual-Control   Outer-Iter.   Inner-Iter.     Column Row Layer    Maximum-Head-Change  Column Row Layer    Maximum-Flux-Residual          L2-NORM 
          0                 1           2             4    7     1       0.2853221474E-01       4    7    1         0.1499670892E+01      0.3486166857E+01
          0                 2           2             4    7     1      -0.2773920848E-02       4    7    1        -0.1498868922E+00      0.3484838278E+00
          0                 3           2             4    7     1       0.1887514355E-03       4    7    1         0.1048416667E-01      0.2438088423E-01
          0                 4           1             4    7     1      -0.7501188767E-05       4    7    1        -0.4282648761E-03      0.9962927053E-03

    ------------------------------------------------
       NWT REQUIRED            4 OUTER ITERATIONS 
       AND A TOTAL OF          7 INNER ITERATIONS.
    ------------------------------------------------

 NO OUTPUT CONTROL FOR STRESS PERIOD   48   TIME STEP   28
 
 SOLVING FOR HEAD 
                                                   Max.-Head-Change                         Max.-Flux-Residual
  Residual-Control   Outer-Iter.   Inner-Iter.     Column Row Layer    Maximum-Head-Change  Column Row Layer    Maximum-Flux-Residual          L2-NORM 
          0                 1           2             4    7     1       0.2820859185E-01       4    7    1         0.1482465341E+01      0.3455268978E+01
          0                 2           2             4    7     1      -0.2742457598E-02       4    7    1        -0.1481672282E+00      0.3453953458E+00
          0                 3           2             4    7     1       0.1866105077E-03       4    7    1         0.1036388016E-01      0.2416480714E-01
          0                 4           1             4    7     1      -0.7416105096E-05       4    7    1        -0.4233512636E-03      0.9874557763E-03

    ------------------------------------------------
       NWT REQUIRED            4 OUTER ITERATIONS 
       AND A TOTAL OF          7 INNER ITERATIONS.
    ------------------------------------------------

 NO OUTPUT CONTROL FOR STRESS PERIOD   48   TIME STEP   29
 
 SOLVING FOR HEAD 
                                                   Max.-Head-Change                         Max.-Flux-Residual
  Residual-Control   Outer-Iter.   Inner-Iter.     Column Row Layer    Maximum-Head-Change  Column Row Layer    Maximum-Flux-Residual          L2-NORM 
          0                 1           2             4    7     1       0.2789227085E-01       4    7    1         0.1465656851E+01      0.3424877361E+01
          0                 2           2             4    7     1      -0.2711704268E-02       4    7    1        -0.1464872508E+00      0.3423574718E+00
          0                 3           2             4    7     1       0.1845178865E-03       4    7    1         0.1024636964E-01      0.2395229515E-01
          0                 4           1             4    7     1      -0.7332940947E-05       4    7    1        -0.4185510347E-03      0.9787846965E-03

    ------------------------------------------------
       NWT REQUIRED            4 OUTER ITERATIONS 
       AND A TOTAL OF          7 INNER ITERATIONS.
    ------------------------------------------------

 NO OUTPUT CONTROL FOR STRESS PERIOD   48   TIME STEP   30



 STREAM LISTING     PERIOD     48   STEP       30

 LAYER ROW COL. STREAM  RCH.  FLOW INTO     FLOW TO   FLOW OUT OF   OVRLND.     DIRECT     STREAM       STREAM     STREAM     STREAM   STREAMBED  STREAMBED
                SEG.NO.  NO.  STRM. RCH.    AQUIFER    STRM. RCH.    RUNOFF     PRECIP       ET          HEAD       DEPTH      WIDTH   CONDCTNC.   GRADIENT

   1    1    1     1     1    1.9000E+01  2.1427E-01   1.8786E+01  0.000E+00  0.000E+00  0.000E+00  1.09413E+03  1.082E+00  1.166E+01  5.249E-02  1.361E+00
   1    2    2     1     2    1.8786E+01  3.3054E-01   1.8455E+01  0.000E+00  0.000E+00  0.000E+00  1.08914E+03  1.077E+00  1.158E+01  8.107E-02  1.359E+00
   1    3    3     1     3    1.8455E+01  2.8064E-01   1.8175E+01  0.000E+00  0.000E+00  0.000E+00  1.08349E+03  1.072E+00  1.149E+01  6.892E-02  1.357E+00
   1    3    4     1     4    1.8175E+01  2.5740E-01   1.7917E+01  0.000E+00  0.000E+00  0.000E+00  1.07848E+03  1.068E+00  1.140E+01  6.328E-02  1.356E+00
   1    4    5     2     1    1.5917E+01  3.0542E-01   1.5612E+01  0.000E+00  0.000E+00  0.000E+00  1.07285E+03  9.157E-01  1.200E+01  7.800E-02  1.305E+00
   1    5    6     2     2    1.5612E+01  2.3438E-01   1.5377E+01  0.000E+00  0.000E+00  0.000E+00  1.06742E+03  9.063E-01  1.200E+01  6.000E-02  1.302E+00
   1    6    6     2     3    1.5377E+01  2.3388E-01   1.5143E+01  0.000E+00  0.000E+00  0.000E+00  1.06269E+03  8.980E-01  1.200E+01  6.000E-02  1.299E+00
   1    7    6     2     4    1.5143E+01  2.3338E-01   1.4910E+01  0.000E+00  0.000E+00  0.000E+00  1.05797E+03  8.897E-01  1.200E+01  6.000E-02  1.297E+00
   1    8    6     2     5    1.4910E+01  2.3289E-01   1.4677E+01  0.000E+00  0.000E+00  0.000E+00  1.05324E+03  8.814E-01  1.200E+01  6.000E-02  1.294E+00
   1    3    5     3     1    2.0000E+00  2.8252E-01   1.7175E+00  0.000E+00  0.000E+00  0.000E+00  1.07555E+03  1.909E+00  9.636E+00  7.227E-02  1.955E+00
   1    3    6     3     2    1.7175E+00  2.4905E-01   1.4684E+00  0.000E+00  0.000E+00  0.000E+00  1.07264E+03  1.727E+00  8.909E+00  6.682E-02  1.864E+00
   1    3    7     3     3    1.4684E+00  1.9718E-01   1.2712E+00  0.000E+00  0.000E+00  0.000E+00  1.06987E+03  1.555E+00  8.218E+00  5.547E-02  1.777E+00
   1    4    8     3     4    1.2712E+00  2.2567E-01   1.0456E+00  0.000E+00  0.000E+00  0.000E+00  1.06682E+03  1.364E+00  7.455E+00  6.709E-02  1.682E+00
   1    5    8     3     5    1.0456E+00  1.5790E-01   8.8768E-01  0.000E+00  0.000E+00  0.000E+00  1.06362E+03  1.164E+00  6.655E+00  4.991E-02  1.582E+00
   1    6    8     3     6    8.8768E-01  5.5980E-02   8.3170E-01  0.000E+00  0.000E+00  0.000E+00  1.06158E+03  1.036E+00  6.145E+00  1.844E-02  1.518E+00
   1    5   10     4     1    1.0000E+01  9.0919E-02   9.9091E+00  0.000E+00  0.000E+00  0.000E+00  1.07836E+03  6.368E-01  1.000E+01  2.500E-02  1.212E+00
   1    5    9     4     2    9.9091E+00  1.8158E-01   9.7275E+00  0.000E+00  0.000E+00  0.000E+00  1.07154E+03  6.315E-01  1.000E+01  5.000E-02  1.211E+00
   1    6    8     4     3    9.7275E+00  1.2689E-01   9.6006E+00  0.000E+00  0.000E+00  0.000E+00  1.06381E+03  6.256E-01  1.000E+01  3.500E-02  1.209E+00
   1    6    8     5     1    1.0432E+01  2.2686E-01   1.0205E+01  0.000E+00  0.000E+00  0.000E+00  1.05868E+03  6.790E-01  1.542E+01  6.166E-02  1.226E+00
   1    7    7     5     2    1.0205E+01  2.7894E-01   9.9265E+00  0.000E+00  0.000E+00  0.000E+00  1.05417E+03  6.732E-01  1.519E+01  7.594E-02  1.224E+00
   1    8    7     5     3    9.9265E+00  1.9221E-01   9.7343E+00  0.000E+00  0.000E+00  0.000E+00  1.04992E+03  6.676E-01  1.497E+01  5.241E-02  1.223E+00
   1    8    6     5     4    9.7343E+00  1.3577E-01   9.5985E+00  0.000E+00  0.000E+00  0.000E+00  1.04691E+03  6.637E-01  1.482E+01  3.706E-02  1.221E+00
   1    9    6     6     1    2.4276E+01  2.5176E-01   2.4024E+01  0.000E+00  0.000E+00  0.000E+00  1.04392E+03  1.196E+00  1.200E+01  6.000E-02  1.399E+00
   1   10    7     6     2    2.4024E+01  2.5131E-01   2.3773E+01  0.000E+00  0.000E+00  0.000E+00  1.03937E+03  1.188E+00  1.200E+01  6.000E-02  1.396E+00
   1   11    7     6     3    2.3773E+01  2.5086E-01   2.3522E+01  0.000E+00  0.000E+00  0.000E+00  1.03482E+03  1.181E+00  1.200E+01  6.000E-02  1.394E+00
   1   12    7     6     4    2.3522E+01  2.5041E-01   2.3271E+01  0.000E+00  0.000E+00  0.000E+00  1.03026E+03  1.173E+00  1.200E+01  6.000E-02  1.391E+00
   1   13    7     6     5    2.3271E+01  1.2331E-02   2.3259E+01  0.000E+00  0.000E+00  0.000E+00  1.02708E+03  1.169E+00  1.200E+01  2.400E-02  1.713E-01
   1   14    9     7     1    1.5000E+02  1.3812E+00   1.4862E+02  0.000E+00  0.000E+00  0.000E+00  1.03987E+03  2.288E+00  5.529E+01  5.593E-01  8.232E-01
   1   13    8     7     2    1.4862E+02  1.9939E+00   1.4662E+02  0.000E+00  0.000E+00  0.000E+00  1.03478E+03  2.279E+00  5.525E+01  6.147E-01  1.081E+00
   1   13    7     7     3    1.4662E+02  1.7439E+00   1.4488E+02  0.000E+00  0.000E+00  0.000E+00  1.02969E+03  2.269E+00  5.521E+01  5.584E-01  1.041E+00
   1   13    6     8     1    1.6814E+02  1.1764E+00   1.6696E+02  0.000E+00  0.000E+00  0.000E+00  1.02481E+03  2.936E+00  4.257E+01  4.339E-01  9.038E-01
   1   13    5     8     2    1.6696E+02  4.1277E-01   1.6655E+02  0.000E+00  0.000E+00  0.000E+00  1.01856E+03  2.931E+00  4.250E+01  4.331E-01  3.177E-01
   1   13    4     8     3    1.6655E+02 -1.6335E+00   1.6818E+02  0.000E+00  0.000E+00  0.000E+00  1.01231E+03  2.935E+00  4.256E+01  4.337E+00 -1.256E-01
   1   13    3     8     4    1.6818E+02 -3.2629E+00   1.7145E+02  0.000E+00  0.000E+00  0.000E+00  1.00608E+03  2.951E+00  4.279E+01  4.360E+00 -2.494E-01
   1   13    2     8     5    1.7145E+02 -2.4804E+00   1.7393E+02  0.000E+00  0.000E+00  0.000E+00  9.99845E+02  2.970E+00  4.306E+01  4.388E+00 -1.884E-01
   1   13    1     8     6    1.7393E+02 -1.9566E+00   1.7588E+02  0.000E+00  0.000E+00  0.000E+00  9.94859E+02  2.984E+00  4.327E+01  2.645E+00 -2.465E-01





UNSATURATED ZONE PACKAGE VOLUMETRIC BUDGET FOR  TIME STEP    30 STRESS PERIOD   48
  ------------------------------------------------------------------------------



     CUMULATIVE VOLUMES      L**3       RATES FOR THIS TIME STEP      L**3/T
     ------------------                 ------------------------

           IN:                                      IN:
           ---                                      ---
        INFILTRATION =  1845024445.2552          INFILTRATION =           0.8475

          OUT:                                     OUT:
          ----                                     ----
              UZF ET =  1692965457.7956                UZF ET =           0.7500
        UZF RECHARGE =   151722816.6258          UZF RECHARGE =           0.0003

            IN - OUT =      336170.8338              IN - OUT =       9.7158E-02

          STORAGE:                                 STORAGE:
          --------                                 --------
      STORAGE CHANGE =      336173.1770        STORAGE CHANGE =       9.7158E-02

 PERCENT DISCREPANCY IS DIFFERENCE BETWEEN IN-OUT MINUS CHANGE IN STORAGE
 DIVIDED BY THE AVERAGE OF IN AND OUT TIMES 100

 PERCENT DISCREPANCY =           0.00     PERCENT DISCREPANCY =           0.00






1
  VOLUMETRIC BUDGET FOR AGRICULTURAL FIELDS AT  END OF TIME STEP   30, STRESS PERIOD  48
  ------------------------------------------------------------------------------

     CUMULATIVE VOLUMES      L**3       RATES FOR THIS TIME STEP      L**3/T
     ------------------                 ------------------------

           IN:                                      IN:
           ---                                      ---
               AG WELLS  =  1740194176.0000                 AG WELLS  =           0.0000
      DIVERSION SEGMENTS =           0.0000        DIVERSION SEGMENTS =           0.0000
       IRRIGATION PONDS  =           0.0000         IRRIGATION PONDS  =           0.0000
           GW IRRIGATION =           0.0000             GW IRRIGATION =           0.0000
           SW IRRIGATION =           0.0000             SW IRRIGATION =           0.0000
        SYSTEM LOSSES GW =           0.0000          SYSTEM LOSSES GW =           0.0000
        SYSTEM LOSSES SW =           0.0000          SYSTEM LOSSES SW =           0.0000

                TOTAL IN =  1740194176.0000                  TOTAL IN =           0.0000

          OUT:                                     OUT:
          ----                                     ----
               AG WELLS  =           0.0000                 AG WELLS  =           0.0000
      DIVERSION SEGMENTS =           0.0000        DIVERSION SEGMENTS =           0.0000
       IRRIGATION PONDS  =           0.0000         IRRIGATION PONDS  =           0.0000
           GW IRRIGATION =  1740194176.0000             GW IRRIGATION =           0.0000
           SW IRRIGATION =           0.0000             SW IRRIGATION =           0.0000
        SYSTEM LOSSES GW =           0.0000          SYSTEM LOSSES GW =           0.0000
        SYSTEM LOSSES SW =           0.0000          SYSTEM LOSSES SW =           0.0000

               TOTAL OUT =  1740194176.0000                 TOTAL OUT =           0.0000

                IN - OUT =           0.0000                  IN - OUT =           0.0000

     PERCENT DISCREPANCY =           0.00         PERCENT DISCREPANCY =           0.00



1
  VOLUMETRIC BUDGET FOR ENTIRE MODEL AT END OF TIME STEP   30, STRESS PERIOD  48
  ------------------------------------------------------------------------------

     CUMULATIVE VOLUMES      L**3       RATES FOR THIS TIME STEP      L**3/T
     ------------------                 ------------------------

           IN:                                      IN:
           ---                                      ---
             STORAGE     =  2277406464.0000               STORAGE     =           8.4318
       CONSTANT HEAD     =           0.0000         CONSTANT HEAD     =           0.0000
     HEAD DEP BOUNDS     =    35423848.0000       HEAD DEP BOUNDS     =           0.2888
      STREAM LEAKAGE     =  1516818048.0000        STREAM LEAKAGE     =          12.4491
        UZF RECHARGE     =   151722832.0000          UZF RECHARGE     =       3.4248E-04
               GW ET     =           0.0000                 GW ET     =           0.0000
     SURFACE LEAKAGE     =           0.0000       SURFACE LEAKAGE     =           0.0000
           AG WELLS      =           0.0000             AG WELLS      =           0.0000

                TOTAL IN =  3981371136.0000                  TOTAL IN =          21.1701

          OUT:                                     OUT:
          ----                                     ----
             STORAGE     =   940662144.0000               STORAGE     =          11.5479
       CONSTANT HEAD     =           0.0000         CONSTANT HEAD     =           0.0000
     HEAD DEP BOUNDS     =    36069936.0000       HEAD DEP BOUNDS     =           0.2887
      STREAM LEAKAGE     =  1246844928.0000        STREAM LEAKAGE     =           9.3334
        UZF RECHARGE     =           0.0000          UZF RECHARGE     =           0.0000
               GW ET     =    17607784.0000                 GW ET     =           0.0000
     SURFACE LEAKAGE     =           0.0000       SURFACE LEAKAGE     =           0.0000
           AG WELLS      =  1740194176.0000             AG WELLS      =           0.0000

               TOTAL OUT =  3981379072.0000                 TOTAL OUT =          21.1700

                IN - OUT =       -7936.0000                  IN - OUT =       1.5259E-05

     PERCENT DISCREPANCY =          -0.00         PERCENT DISCREPANCY =           0.00






         TIME SUMMARY AT END OF TIME STEP   30 IN STRESS PERIOD   48
                    SECONDS     MINUTES      HOURS       DAYS        YEARS
                    -----------------------------------------------------------
   TIME STEP LENGTH  87667.      1461.1      24.352      1.0147     2.77799E-03
 STRESS PERIOD TIME 2.63000E+06  43833.      730.56      30.440     8.33397E-02
         TOTAL TIME 1.23695E+08 2.06158E+06  34360.      1431.7      3.9197    
1
1
                            STRESS PERIOD NO.   49, LENGTH =   2630000.    
                            -----------------------------------------------

                              NUMBER OF TIME STEPS =    30

                               MULTIPLIER FOR DELT =     1.000

                            INITIAL TIME STEP SIZE =   87666.66    

 REUSING NON-PARAMETER GHB CELLS FROM LAST STRESS PERIOD

      2 GHB CELLS

 REUSING STREAM SEGMENT DATA FROM LAST STRESS PERIOD



            AREAL INFILTRATION RATE
 READING ON UNIT   19 WITH FORMAT: (FREE)              

            1           2           3           4           5           6           7           8           9          10
 ........................................................................................................................
   1   1.0000E-10  2.0000E-10   0.000       0.000       0.000       0.000       0.000       0.000       0.000       0.000    
   2   2.0000E-10  1.0000E-10  2.0000E-10   0.000       0.000      8.0000E-10  8.0000E-10  5.0000E-10   0.000       0.000    
   3    0.000      5.0000E-10  1.0000E-10  1.0000E-10  8.0000E-10  8.0000E-10  5.0000E-10  5.0000E-10   0.000       0.000    
   4   8.0000E-10  5.0000E-10  1.0000E-10  1.0000E-10  1.0000E-10  1.0000E-10  1.0000E-10  1.0000E-10  2.0000E-10   0.000    
   5   8.0000E-10  5.0000E-10  1.0000E-10  1.0000E-10  1.0000E-10  1.0000E-10  1.0000E-10  1.0000E-10  1.0000E-10  1.0000E-10
   6   8.0000E-10  5.0000E-10  5.0000E-10  2.0000E-10  2.0000E-10  1.0000E-10  1.0000E-10  1.0000E-10  1.0000E-10  5.0000E-10
   7   8.0000E-10  5.0000E-10  5.0000E-10  2.0000E-10  2.0000E-10  1.0000E-10  1.0000E-10  2.0000E-10  2.0000E-10   0.000    
   8    0.000      5.0000E-10  5.0000E-10  2.0000E-10  2.0000E-10  1.0000E-10  1.0000E-10  2.0000E-10  5.0000E-10   0.000    
   9    0.000      5.0000E-10  5.0000E-10  2.0000E-10  2.0000E-10  1.0000E-10  1.0000E-10  2.0000E-10  5.0000E-10   0.000    
  10    0.000      5.0000E-10  5.0000E-10  2.0000E-10  2.0000E-10  1.0000E-10  1.0000E-10  2.0000E-10  5.0000E-10  8.0000E-10
  11    0.000      1.0000E-10  1.0000E-10  1.0000E-10  1.0000E-10  1.0000E-10  1.0000E-10  2.0000E-10  5.0000E-10   0.000    
  12   1.0000E-10  1.0000E-10  1.0000E-10  1.0000E-10  1.0000E-10  1.0000E-10  1.0000E-10  1.0000E-10  2.0000E-10   0.000    
  13   1.0000E-10  1.0000E-10  2.0000E-10  2.0000E-10  2.0000E-10  2.0000E-10  2.0000E-10  1.0000E-10  1.0000E-10   0.000    
  14    0.000      2.0000E-10  5.0000E-10  5.0000E-10  5.0000E-10  5.0000E-10  5.0000E-10  2.0000E-10  1.0000E-10   0.000    
  15    0.000       0.000      8.0000E-10  8.0000E-10  8.0000E-10  8.0000E-10   0.000       0.000       0.000       0.000    

                  ET RATE =  5.000000E-10

 USING ET EXTINCTION DEPTH FROM PREVIOUS STRESS PERIOD. CURRENT PERIOD IS:      49

 USING EXTINCTION WATER CONTENT FROM PREVIOUS STRESS PERIOD. CURRENT PERIOD IS:      49

 USING AIR ENTRY PRESSURE FROM PREVIOUS STRESS PERIOD. CURRENT PERIOD IS:      49

 USING ROOT PRESSURE HEAD FROM PREVIOUS STRESS PERIOD. CURRENT PERIOD IS:      49

 USING ROOT ACTIVITY FROM PREVIOUS STRESS PERIOD. CURRENT PERIOD IS:      49

 PROCESSING AG STRESS PERIOD DATA

 READING AG STRESS PERIOD DATA

 READING IRRIGATION WELL

 NO IRRPOND OR REUSING IRRPOND DATA FROM LAST STRESS PERIOD

 END PROCESSING AG STRESS PERIOD DATA OPTIONS
 
 SOLVING FOR HEAD 
                                                   Max.-Head-Change                         Max.-Flux-Residual
  Residual-Control   Outer-Iter.   Inner-Iter.     Column Row Layer    Maximum-Head-Change  Column Row Layer    Maximum-Flux-Residual          L2-NORM 
          0                 1           2             4    7     1       0.2758264852E-01       4    7    1         0.1449212399E+01      0.3394969358E+01
          0                 2           2             4    7     1      -0.2681601976E-02       4    7    1        -0.1448436594E+00      0.3393490214E+00
          0                 3           2             4    7     1       0.1824695663E-03       4    7    1         0.1013140431E-01      0.2374182071E-01
          0                 4           1             4    7     1      -0.7251537444E-05       4    7    1        -0.4138547706E-03      0.9702419383E-03

    ------------------------------------------------
       NWT REQUIRED            4 OUTER ITERATIONS 
       AND A TOTAL OF          7 INNER ITERATIONS.
    ------------------------------------------------

 NO OUTPUT CONTROL FOR STRESS PERIOD   49   TIME STEP    1
 
 SOLVING FOR HEAD 
                                                   Max.-Head-Change                         Max.-Flux-Residual
  Residual-Control   Outer-Iter.   Inner-Iter.     Column Row Layer    Maximum-Head-Change  Column Row Layer    Maximum-Flux-Residual          L2-NORM 
          0                 1           2             4    7     1       0.2727969881E-01       4    7    1         0.1433129826E+01      0.3365555228E+01
          0                 2           2             4    7     1      -0.2652148875E-02       4    7    1        -0.1432362380E+00      0.3364121164E+00
          0                 3           2             4    7     1       0.1804654214E-03       4    7    1         0.1001896901E-01      0.2353637095E-01
          0                 4           1             4    7     1      -0.7171889868E-05       4    7    1        -0.4092618829E-03      0.9617913632E-03

    ------------------------------------------------
       NWT REQUIRED            4 OUTER ITERATIONS 
       AND A TOTAL OF          7 INNER ITERATIONS.
    ------------------------------------------------

 NO OUTPUT CONTROL FOR STRESS PERIOD   49   TIME STEP    2
 
 SOLVING FOR HEAD 
                                                   Max.-Head-Change                         Max.-Flux-Residual
  Residual-Control   Outer-Iter.   Inner-Iter.     Column Row Layer    Maximum-Head-Change  Column Row Layer    Maximum-Flux-Residual          L2-NORM 
          0                 1           2             4    7     1       0.2698298911E-01       4    7    1         0.1417385915E+01      0.3336657191E+01
          0                 2           2             4    7     1      -0.2623302258E-02       4    7    1        -0.1416626661E+00      0.3335392844E+00
          0                 3           2             4    7     1       0.1785025454E-03       4    7    1         0.9908901434E-02      0.2333540196E-01
          0                 4           1             4    7     1      -0.7093882629E-05       4    7    1        -0.4047657176E-03      0.9535811378E-03

    ------------------------------------------------
       NWT REQUIRED            4 OUTER ITERATIONS 
       AND A TOTAL OF          7 INNER ITERATIONS.
    ------------------------------------------------

 NO OUTPUT CONTROL FOR STRESS PERIOD   49   TIME STEP    3
 
 SOLVING FOR HEAD 
                                                   Max.-Head-Change                         Max.-Flux-Residual
  Residual-Control   Outer-Iter.   Inner-Iter.     Column Row Layer    Maximum-Head-Change  Column Row Layer    Maximum-Flux-Residual          L2-NORM 
          0                 1           2             4    7     1       0.2669239359E-01       4    7    1         0.1401972825E+01      0.3308229272E+01
          0                 2           2             4    7     1      -0.2595050063E-02       4    7    1        -0.1401221599E+00      0.3306977224E+00
          0                 3           2             4    7     1       0.1765801172E-03       4    7    1         0.9801146753E-02      0.2313661020E-01
          0                 4           1             4    7     1      -0.7017482457E-05       4    7    1        -0.4003640174E-03      0.9454579666E-03

    ------------------------------------------------
       NWT REQUIRED            4 OUTER ITERATIONS 
       AND A TOTAL OF          7 INNER ITERATIONS.
    ------------------------------------------------

 NO OUTPUT CONTROL FOR STRESS PERIOD   49   TIME STEP    4
 
 SOLVING FOR HEAD 
                                                   Max.-Head-Change                         Max.-Flux-Residual
  Residual-Control   Outer-Iter.   Inner-Iter.     Column Row Layer    Maximum-Head-Change  Column Row Layer    Maximum-Flux-Residual          L2-NORM 
          0                 1           2             4    7     1       0.2640765403E-01       4    7    1         0.1386876744E+01      0.3280232720E+01
          0                 2           2             4    7     1      -0.2567367208E-02       4    7    1        -0.1386133389E+00      0.3278992909E+00
          0                 3           2             4    7     1       0.1746964304E-03       4    7    1         0.9695608399E-02      0.2294086047E-01
          0                 4           1             4    7     1      -0.6942622001E-05       4    7    1        -0.3960528684E-03      0.9374867137E-03

    ------------------------------------------------
       NWT REQUIRED            4 OUTER ITERATIONS 
       AND A TOTAL OF          7 INNER ITERATIONS.
    ------------------------------------------------

 NO OUTPUT CONTROL FOR STRESS PERIOD   49   TIME STEP    5
 
 SOLVING FOR HEAD 
                                                   Max.-Head-Change                         Max.-Flux-Residual
  Residual-Control   Outer-Iter.   Inner-Iter.     Column Row Layer    Maximum-Head-Change  Column Row Layer    Maximum-Flux-Residual          L2-NORM 
          0                 1           2             4    7     1       0.2612839644E-01       4    7    1         0.1372077007E+01      0.3252663523E+01
          0                 2           2             4    7     1      -0.2540217330E-02       4    7    1        -0.1371341376E+00      0.3251435682E+00
          0                 3           2             4    7     1       0.1728490112E-03       4    7    1         0.9592141922E-02      0.2274804811E-01
          0                 4           1             4    7     1      -0.6869203173E-05       4    7    1        -0.3918263601E-03      0.9295784000E-03

    ------------------------------------------------
       NWT REQUIRED            4 OUTER ITERATIONS 
       AND A TOTAL OF          7 INNER ITERATIONS.
    ------------------------------------------------

 NO OUTPUT CONTROL FOR STRESS PERIOD   49   TIME STEP    6
 
 SOLVING FOR HEAD 
                                                   Max.-Head-Change                         Max.-Flux-Residual
  Residual-Control   Outer-Iter.   Inner-Iter.     Column Row Layer    Maximum-Head-Change  Column Row Layer    Maximum-Flux-Residual          L2-NORM 
          0                 1           2             4    7     1       0.2585453594E-01       4    7    1         0.1357568777E+01      0.3225504504E+01
          0                 2           2             4    7     1      -0.2513592177E-02       4    7    1        -0.1356840725E+00      0.3224288692E+00
          0                 3           2             4    7     1       0.1710372964E-03       4    7    1         0.9490713450E-02      0.2255814275E-01
          0                 4           1             4    7     1      -0.6797203063E-05       4    7    1        -0.3876830760E-03      0.9218291090E-03

    ------------------------------------------------
       NWT REQUIRED            4 OUTER ITERATIONS 
       AND A TOTAL OF          7 INNER ITERATIONS.
    ------------------------------------------------

 NO OUTPUT CONTROL FOR STRESS PERIOD   49   TIME STEP    7
 
 SOLVING FOR HEAD 
                                                   Max.-Head-Change                         Max.-Flux-Residual
  Residual-Control   Outer-Iter.   Inner-Iter.     Column Row Layer    Maximum-Head-Change  Column Row Layer    Maximum-Flux-Residual          L2-NORM 
          0                 1           2             4    7     1       0.2558586693E-01       4    7    1         0.1343340377E+01      0.3198765301E+01
          0                 2           2             4    7     1      -0.2487471758E-02       4    7    1        -0.1342619764E+00      0.3197561512E+00
          0                 3           2             4    7     1       0.1692599270E-03       4    7    1         0.9391241360E-02      0.2237118530E-01
          0                 4           1             4    7     1      -0.6726567905E-05       4    7    1        -0.3836197225E-03      0.9141879141E-03

    ------------------------------------------------
       NWT REQUIRED            4 OUTER ITERATIONS 
       AND A TOTAL OF          7 INNER ITERATIONS.
    ------------------------------------------------

 NO OUTPUT CONTROL FOR STRESS PERIOD   49   TIME STEP    8
 
 SOLVING FOR HEAD 
                                                   Max.-Head-Change                         Max.-Flux-Residual
  Residual-Control   Outer-Iter.   Inner-Iter.     Column Row Layer    Maximum-Head-Change  Column Row Layer    Maximum-Flux-Residual          L2-NORM 
          0                 1           2             4    7     1       0.2532231925E-01       4    7    1         0.1329388425E+01      0.3172418004E+01
          0                 2           2             4    7     1      -0.2461849253E-02       4    7    1        -0.1328675113E+00      0.3171225819E+00
          0                 3           2             4    7     1       0.1675164392E-03       4    7    1         0.9293702031E-02      0.2218694109E-01
          0                 4           1             4    7     1      -0.6657279510E-05       4    7    1        -0.3796353403E-03      0.9066565827E-03

    ------------------------------------------------
       NWT REQUIRED            4 OUTER ITERATIONS 
       AND A TOTAL OF          7 INNER ITERATIONS.
    ------------------------------------------------

 NO OUTPUT CONTROL FOR STRESS PERIOD   49   TIME STEP    9
 
 SOLVING FOR HEAD 
                                                   Max.-Head-Change                         Max.-Flux-Residual
  Residual-Control   Outer-Iter.   Inner-Iter.     Column Row Layer    Maximum-Head-Change  Column Row Layer    Maximum-Flux-Residual          L2-NORM 
          0                 1           2             4    7     1       0.2506343395E-01       4    7    1         0.1315687446E+01      0.3146452822E+01
          0                 2           2             4    7     1      -0.2436680040E-02       4    7    1        -0.1314981309E+00      0.3145272228E+00
          0                 3           2             4    7     1       0.1658037954E-03       4    7    1         0.9197917311E-02      0.2200538378E-01
          0                 4           1             4    7     1      -0.6589216533E-05       4    7    1        -0.3757226250E-03      0.8992414167E-03

    ------------------------------------------------
       NWT REQUIRED            4 OUTER ITERATIONS 
       AND A TOTAL OF          7 INNER ITERATIONS.
    ------------------------------------------------

 NO OUTPUT CONTROL FOR STRESS PERIOD   49   TIME STEP   10
 
 SOLVING FOR HEAD 
                                                   Max.-Head-Change                         Max.-Flux-Residual
  Residual-Control   Outer-Iter.   Inner-Iter.     Column Row Layer    Maximum-Head-Change  Column Row Layer    Maximum-Flux-Residual          L2-NORM 
          0                 1           2             4    7     1       0.2480917776E-01       4    7    1         0.1302235481E+01      0.3120874489E+01
          0                 2           2             4    7     1      -0.2411960884E-02       4    7    1        -0.1301536394E+00      0.3119705384E+00
          0                 3           2             4    7     1       0.1641217763E-03       4    7    1         0.9103873540E-02      0.2182652423E-01
          0                 4           1             4    7     1      -0.6522371146E-05       4    7    1        -0.3718810258E-03      0.9019789690E-03

    ------------------------------------------------
       NWT REQUIRED            4 OUTER ITERATIONS 
       AND A TOTAL OF          7 INNER ITERATIONS.
    ------------------------------------------------

 NO OUTPUT CONTROL FOR STRESS PERIOD   49   TIME STEP   11
 
 SOLVING FOR HEAD 
                                                   Max.-Head-Change                         Max.-Flux-Residual
  Residual-Control   Outer-Iter.   Inner-Iter.     Column Row Layer    Maximum-Head-Change  Column Row Layer    Maximum-Flux-Residual          L2-NORM 
          0                 1           2             4    7     1       0.2455951532E-01       4    7    1         0.1289030808E+01      0.3095664455E+01
          0                 2           2             4    7     1      -0.2387688349E-02       4    7    1        -0.1288338648E+00      0.3094506608E+00
          0                 3           2             4    7     1       0.1624701478E-03       4    7    1         0.9011558666E-02      0.2165023332E-01
          0                 4           1             4    7     1      -0.6456732987E-05       4    7    1        -0.3681100357E-03      0.8847255861E-03

    ------------------------------------------------
       NWT REQUIRED            4 OUTER ITERATIONS 
       AND A TOTAL OF          7 INNER ITERATIONS.
    ------------------------------------------------

 NO OUTPUT CONTROL FOR STRESS PERIOD   49   TIME STEP   12
 
 SOLVING FOR HEAD 
                                                   Max.-Head-Change                         Max.-Flux-Residual
  Residual-Control   Outer-Iter.   Inner-Iter.     Column Row Layer    Maximum-Head-Change  Column Row Layer    Maximum-Flux-Residual          L2-NORM 
          0                 1           2             4    7     1       0.2431402081E-01       4    7    1         0.1276049751E+01      0.3070816321E+01
          0                 2           2             4    7     1      -0.2363821031E-02       4    7    1        -0.1275364404E+00      0.3069669655E+00
          0                 3           2             4    7     1       0.1608460926E-03       4    7    1         0.8920807154E-02      0.2147649653E-01
          0                 4           1             4    7     1      -0.6392190727E-05       4    7    1        -0.3644029202E-03      0.8776328897E-03

    ------------------------------------------------
       NWT REQUIRED            4 OUTER ITERATIONS 
       AND A TOTAL OF          7 INNER ITERATIONS.
    ------------------------------------------------

 NO OUTPUT CONTROL FOR STRESS PERIOD   49   TIME STEP   13
 
 SOLVING FOR HEAD 
                                                   Max.-Head-Change                         Max.-Flux-Residual
  Residual-Control   Outer-Iter.   Inner-Iter.     Column Row Layer    Maximum-Head-Change  Column Row Layer    Maximum-Flux-Residual          L2-NORM 
          0                 1           2             4    7     1       0.2407295368E-01       4    7    1         0.1263306636E+01      0.3046332525E+01
          0                 2           2             4    7     1      -0.2340384157E-02       4    7    1        -0.1262627982E+00      0.3045196833E+00
          0                 3           2             4    7     1       0.1592513276E-03       4    7    1         0.8831719153E-02      0.2130529941E-01
          0                 4           1             4    7     1      -0.6328813443E-05       4    7    1        -0.3607637823E-03      0.8706368046E-03

    ------------------------------------------------
       NWT REQUIRED            4 OUTER ITERATIONS 
       AND A TOTAL OF          7 INNER ITERATIONS.
    ------------------------------------------------

 NO OUTPUT CONTROL FOR STRESS PERIOD   49   TIME STEP   14
 
 SOLVING FOR HEAD 
                                                   Max.-Head-Change                         Max.-Flux-Residual
  Residual-Control   Outer-Iter.   Inner-Iter.     Column Row Layer    Maximum-Head-Change  Column Row Layer    Maximum-Flux-Residual          L2-NORM 
          0                 1           2             4    7     1       0.2383576353E-01       4    7    1         0.1250771229E+01      0.3022192878E+01
          0                 2           2             4    7     1      -0.2317324214E-02       4    7    1        -0.1250099163E+00      0.3021068202E+00
          0                 3           2             4    7     1       0.1576822107E-03       4    7    1         0.8744083294E-02      0.2113650619E-01
          0                 4           1             4    7     1      -0.6266454233E-05       4    7    1        -0.3571839361E-03      0.8637433002E-03

    ------------------------------------------------
       NWT REQUIRED            4 OUTER ITERATIONS 
       AND A TOTAL OF          7 INNER ITERATIONS.
    ------------------------------------------------

 NO OUTPUT CONTROL FOR STRESS PERIOD   49   TIME STEP   15
 
 SOLVING FOR HEAD 
                                                   Max.-Head-Change                         Max.-Flux-Residual
  Residual-Control   Outer-Iter.   Inner-Iter.     Column Row Layer    Maximum-Head-Change  Column Row Layer    Maximum-Flux-Residual          L2-NORM 
          0                 1           2             4    7     1       0.2360259238E-01       4    7    1         0.1238451399E+01      0.2998392107E+01
          0                 2           2             4    7     1      -0.2294653543E-02       4    7    1        -0.1237785812E+00      0.2997038025E+00
          0                 3           2             4    7     1       0.1561395823E-03       4    7    1         0.8657954606E-02      0.2096839405E-01
          0                 4           1             4    7     1      -0.6205148326E-05       4    7    1        -0.3536656604E-03      0.8568835570E-03

    ------------------------------------------------
       NWT REQUIRED            4 OUTER ITERATIONS 
       AND A TOTAL OF          7 INNER ITERATIONS.
    ------------------------------------------------

 NO OUTPUT CONTROL FOR STRESS PERIOD   49   TIME STEP   16
 
 SOLVING FOR HEAD 
                                                   Max.-Head-Change                         Max.-Flux-Residual
  Residual-Control   Outer-Iter.   Inner-Iter.     Column Row Layer    Maximum-Head-Change  Column Row Layer    Maximum-Flux-Residual          L2-NORM 
          0                 1           2             4    7     1       0.2337331866E-01       4    7    1         0.1226340025E+01      0.2974955828E+01
          0                 2           2             4    7     1      -0.2272364727E-02       4    7    1        -0.1225680811E+00      0.2973852782E+00
          0                 3           2             4    7     1       0.1546229369E-03       4    7    1         0.8573283278E-02      0.2080619216E-01
          0                 4           1             4    7     1      -0.6144875112E-05       4    7    1        -0.3502069285E-03      0.8502633661E-03

    ------------------------------------------------
       NWT REQUIRED            4 OUTER ITERATIONS 
       AND A TOTAL OF          7 INNER ITERATIONS.
    ------------------------------------------------

 NO OUTPUT CONTROL FOR STRESS PERIOD   49   TIME STEP   17
 
 SOLVING FOR HEAD 
                                                   Max.-Head-Change                         Max.-Flux-Residual
  Residual-Control   Outer-Iter.   Inner-Iter.     Column Row Layer    Maximum-Head-Change  Column Row Layer    Maximum-Flux-Residual          L2-NORM 
          0                 1           2             4    7     1       0.2314768198E-01       4    7    1         0.1214423286E+01      0.2951825398E+01
          0                 2           2             4    7     1      -0.2250428083E-02       4    7    1        -0.1213770347E+00      0.2950733197E+00
          0                 3           2             4    7     1       0.1531302558E-03       4    7    1         0.8489972687E-02      0.2064446184E-01
          0                 4           1             4    7     1      -0.6085554120E-05       4    7    1        -0.3468037717E-03      0.8436330537E-03

    ------------------------------------------------
       NWT REQUIRED            4 OUTER ITERATIONS 
       AND A TOTAL OF          7 INNER ITERATIONS.
    ------------------------------------------------

 NO OUTPUT CONTROL FOR STRESS PERIOD   49   TIME STEP   18
 
 SOLVING FOR HEAD 
                                                   Max.-Head-Change                         Max.-Flux-Residual
  Residual-Control   Outer-Iter.   Inner-Iter.     Column Row Layer    Maximum-Head-Change  Column Row Layer    Maximum-Flux-Residual          L2-NORM 
          0                 1           2             4    7     1       0.2292570946E-01       4    7    1         0.1202702480E+01      0.2929019274E+01
          0                 2           2             4    7     1      -0.2228847639E-02       4    7    1        -0.1202055716E+00      0.2927937475E+00
          0                 3           2             4    7     1       0.1516618123E-03       4    7    1         0.8408031918E-02      0.2048501279E-01
          0                 4           1             4    7     1      -0.6027196054E-05       4    7    1        -0.3434565647E-03      0.8371292532E-03

    ------------------------------------------------
       NWT REQUIRED            4 OUTER ITERATIONS 
       AND A TOTAL OF          7 INNER ITERATIONS.
    ------------------------------------------------

 NO OUTPUT CONTROL FOR STRESS PERIOD   49   TIME STEP   19
 
 SOLVING FOR HEAD 
                                                   Max.-Head-Change                         Max.-Flux-Residual
  Residual-Control   Outer-Iter.   Inner-Iter.     Column Row Layer    Maximum-Head-Change  Column Row Layer    Maximum-Flux-Residual          L2-NORM 
          0                 1           2             4    7     1       0.2270715635E-01       4    7    1         0.1191164373E+01      0.2906522627E+01
          0                 2           2             4    7     1      -0.2207599640E-02       4    7    1        -0.1190523690E+00      0.2905450966E+00
          0                 3           2             4    7     1       0.1502159906E-03       4    7    1         0.8327368423E-02      0.2032769357E-01
          0                 4           1             4    7     1      -0.5969737596E-05       4    7    1        -0.3401615663E-03      0.8306927537E-03

    ------------------------------------------------
       NWT REQUIRED            4 OUTER ITERATIONS 
       AND A TOTAL OF          7 INNER ITERATIONS.
    ------------------------------------------------

 NO OUTPUT CONTROL FOR STRESS PERIOD   49   TIME STEP   20
 
 SOLVING FOR HEAD 
                                                   Max.-Head-Change                         Max.-Flux-Residual
  Residual-Control   Outer-Iter.   Inner-Iter.     Column Row Layer    Maximum-Head-Change  Column Row Layer    Maximum-Flux-Residual          L2-NORM 
          0                 1           2             4    7     1       0.2249206096E-01       4    7    1         0.1179810839E+01      0.2884341704E+01
          0                 2           2             4    7     1      -0.2186687807E-02       4    7    1        -0.1179176144E+00      0.2883279951E+00
          0                 3           2             4    7     1       0.1487930429E-03       4    7    1         0.8247995324E-02      0.2017258710E-01
          0                 4           1             4    7     1      -0.5913187724E-05       4    7    1        -0.3369192509E-03      0.8243173924E-03

    ------------------------------------------------
       NWT REQUIRED            4 OUTER ITERATIONS 
       AND A TOTAL OF          7 INNER ITERATIONS.
    ------------------------------------------------

 NO OUTPUT CONTROL FOR STRESS PERIOD   49   TIME STEP   21
 
 SOLVING FOR HEAD 
                                                   Max.-Head-Change                         Max.-Flux-Residual
  Residual-Control   Outer-Iter.   Inner-Iter.     Column Row Layer    Maximum-Head-Change  Column Row Layer    Maximum-Flux-Residual          L2-NORM 
          0                 1           2             4    7     1       0.2228032265E-01       4    7    1         0.1168636582E+01      0.2862460343E+01
          0                 2           2             4    7     1      -0.2166102360E-02       4    7    1        -0.1168007782E+00      0.2861408707E+00
          0                 3           2             4    7     1       0.1473923045E-03       4    7    1         0.8169875588E-02      0.2001959482E-01
          0                 4           1             4    7     1      -0.5857520536E-05       4    7    1        -0.3337281305E-03      0.8180940131E-03

    ------------------------------------------------
       NWT REQUIRED            4 OUTER ITERATIONS 
       AND A TOTAL OF          7 INNER ITERATIONS.
    ------------------------------------------------

 NO OUTPUT CONTROL FOR STRESS PERIOD   49   TIME STEP   22
 
 SOLVING FOR HEAD 
                                                   Max.-Head-Change                         Max.-Flux-Residual
  Residual-Control   Outer-Iter.   Inner-Iter.     Column Row Layer    Maximum-Head-Change  Column Row Layer    Maximum-Flux-Residual          L2-NORM 
          0                 1           2             4    7     1       0.2207184372E-01       4    7    1         0.1157636383E+01      0.2840875167E+01
          0                 2           2             4    7     1      -0.2145833790E-02       4    7    1        -0.1157013390E+00      0.2839757571E+00
          0                 3           2             4    7     1       0.1460131285E-03       4    7    1         0.8092972745E-02      0.1986809064E-01
          0                 4           1             4    7     1      -0.5802710473E-05       4    7    1        -0.3305867422E-03      0.8119154057E-03

    ------------------------------------------------
       NWT REQUIRED            4 OUTER ITERATIONS 
       AND A TOTAL OF          7 INNER ITERATIONS.
    ------------------------------------------------

 NO OUTPUT CONTROL FOR STRESS PERIOD   49   TIME STEP   23
 
 SOLVING FOR HEAD 
                                                   Max.-Head-Change                         Max.-Flux-Residual
  Residual-Control   Outer-Iter.   Inner-Iter.     Column Row Layer    Maximum-Head-Change  Column Row Layer    Maximum-Flux-Residual          L2-NORM 
          0                 1           2             4    7     1       0.2186653691E-01       4    7    1         0.1146805177E+01      0.2819596490E+01
          0                 2           2             4    7     1      -0.2125935006E-02       4    7    1        -0.1146187905E+00      0.2819358619E+00
          0                 3           2             4    7     1       0.1446591127E-03       4    7    1         0.8017251201E-02      0.1972543860E-01
          0                 4           1             4    7     1      -0.5748900524E-05       4    7    1        -0.3274935993E-03      0.8060894041E-03

    ------------------------------------------------
       NWT REQUIRED            4 OUTER ITERATIONS 
       AND A TOTAL OF          7 INNER ITERATIONS.
    ------------------------------------------------

 NO OUTPUT CONTROL FOR STRESS PERIOD   49   TIME STEP   24
 
 SOLVING FOR HEAD 
                                                   Max.-Head-Change                         Max.-Flux-Residual
  Residual-Control   Outer-Iter.   Inner-Iter.     Column Row Layer    Maximum-Head-Change  Column Row Layer    Maximum-Flux-Residual          L2-NORM 
          0                 1           2             4    7     1       0.2166411406E-01       4    7    1         0.1136135168E+01      0.2798538495E+01
          0                 2           2             4    7     1      -0.2106193896E-02       4    7    1        -0.1135523541E+00      0.2797516563E+00
          0                 3           2             4    7     1       0.1433158307E-03       4    7    1         0.7942657005E-02      0.1957264059E-01
          0                 4           1             4    7     1      -0.5695517007E-05       4    7    1        -0.3244465170E-03      0.7998426347E-03

    ------------------------------------------------
       NWT REQUIRED            4 OUTER ITERATIONS 
       AND A TOTAL OF          7 INNER ITERATIONS.
    ------------------------------------------------

 NO OUTPUT CONTROL FOR STRESS PERIOD   49   TIME STEP   25
 
 SOLVING FOR HEAD 
                                                   Max.-Head-Change                         Max.-Flux-Residual
  Residual-Control   Outer-Iter.   Inner-Iter.     Column Row Layer    Maximum-Head-Change  Column Row Layer    Maximum-Flux-Residual          L2-NORM 
          0                 1           2             4    7     1       0.2146455626E-01       4    7    1         0.1125613942E+01      0.2777742697E+01
          0                 2           2             4    7     1      -0.2086792671E-02       4    7    1        -0.1125007881E+00      0.2776730334E+00
          0                 3           2             4    7     1       0.1419956736E-03       4    7    1         0.7869102778E-02      0.1942723767E-01
          0                 4           1             4    7     1      -0.5643052553E-05       4    7    1        -0.3214419098E-03      0.7939056298E-03

    ------------------------------------------------
       NWT REQUIRED            4 OUTER ITERATIONS 
       AND A TOTAL OF          7 INNER ITERATIONS.
    ------------------------------------------------

 NO OUTPUT CONTROL FOR STRESS PERIOD   49   TIME STEP   26
 
 SOLVING FOR HEAD 
                                                   Max.-Head-Change                         Max.-Flux-Residual
  Residual-Control   Outer-Iter.   Inner-Iter.     Column Row Layer    Maximum-Head-Change  Column Row Layer    Maximum-Flux-Residual          L2-NORM 
          0                 1           2             4    7     1       0.2126800559E-01       4    7    1         0.1115252565E+01      0.2757231229E+01
          0                 2           2             4    7     1      -0.2067683807E-02       4    7    1        -0.1114651986E+00      0.2756228507E+00
          0                 3           2             4    7     1       0.1406954101E-03       4    7    1         0.7796666095E-02      0.1928381621E-01
          0                 4           1             4    7     1      -0.5591378336E-05       4    7    1        -0.3184829393E-03      0.7880432422E-03

    ------------------------------------------------
       NWT REQUIRED            4 OUTER ITERATIONS 
       AND A TOTAL OF          7 INNER ITERATIONS.
    ------------------------------------------------

 NO OUTPUT CONTROL FOR STRESS PERIOD   49   TIME STEP   27
 
 SOLVING FOR HEAD 
                                                   Max.-Head-Change                         Max.-Flux-Residual
  Residual-Control   Outer-Iter.   Inner-Iter.     Column Row Layer    Maximum-Head-Change  Column Row Layer    Maximum-Flux-Residual          L2-NORM 
          0                 1           2             4    7     1       0.2107425484E-01       4    7    1         0.1105039816E+01      0.2736995816E+01
          0                 2           2             4    7     1      -0.2048847156E-02       4    7    1        -0.1104444644E+00      0.2736002358E+00
          0                 3           2             4    7     1       0.1394136695E-03       4    7    1         0.7725268480E-02      0.1914232199E-01
          0                 4           1             4    7     1      -0.5540440359E-05       4    7    1        -0.3155664294E-03      0.7822667826E-03

    ------------------------------------------------
       NWT REQUIRED            4 OUTER ITERATIONS 
       AND A TOTAL OF          7 INNER ITERATIONS.
    ------------------------------------------------

 NO OUTPUT CONTROL FOR STRESS PERIOD   49   TIME STEP   28
 
 SOLVING FOR HEAD 
                                                   Max.-Head-Change                         Max.-Flux-Residual
  Residual-Control   Outer-Iter.   Inner-Iter.     Column Row Layer    Maximum-Head-Change  Column Row Layer    Maximum-Flux-Residual          L2-NORM 
          0                 1           2             4    7     1       0.2088323781E-01       4    7    1         0.1094972238E+01      0.2717023061E+01
          0                 2           2             4    7     1      -0.2030276283E-02       4    7    1        -0.1094382396E+00      0.2716039044E+00
          0                 3           2             4    7     1       0.1381500138E-03       4    7    1         0.7654885781E-02      0.1900268635E-01
          0                 4           1             4    7     1      -0.5490221239E-05       4    7    1        -0.3126913734E-03      0.7765748441E-03

    ------------------------------------------------
       NWT REQUIRED            4 OUTER ITERATIONS 
       AND A TOTAL OF          7 INNER ITERATIONS.
    ------------------------------------------------

 NO OUTPUT CONTROL FOR STRESS PERIOD   49   TIME STEP   29
 
 SOLVING FOR HEAD 
                                                   Max.-Head-Change                         Max.-Flux-Residual
  Residual-Control   Outer-Iter.   Inner-Iter.     Column Row Layer    Maximum-Head-Change  Column Row Layer    Maximum-Flux-Residual          L2-NORM 
          0                 1           2             4    7     1       0.2069489262E-01       4    7    1         0.1085046398E+01      0.2697324936E+01
          0                 2           2             4    7     1      -0.2011965172E-02       4    7    1        -0.1084461814E+00      0.2696350303E+00
          0                 3           2             4    7     1       0.1369040341E-03       4    7    1         0.7585493998E-02      0.1886498090E-01
          0                 4           1             4    7     1      -0.5440704973E-05       4    7    1        -0.3098568104E-03      0.7709267572E-03

    ------------------------------------------------
       NWT REQUIRED            4 OUTER ITERATIONS 
       AND A TOTAL OF          7 INNER ITERATIONS.
    ------------------------------------------------

 NO OUTPUT CONTROL FOR STRESS PERIOD   49   TIME STEP   30



 STREAM LISTING     PERIOD     49   STEP       30

 LAYER ROW COL. STREAM  RCH.  FLOW INTO     FLOW TO   FLOW OUT OF   OVRLND.     DIRECT     STREAM       STREAM     STREAM     STREAM   STREAMBED  STREAMBED
                SEG.NO.  NO.  STRM. RCH.    AQUIFER    STRM. RCH.    RUNOFF     PRECIP       ET          HEAD       DEPTH      WIDTH   CONDCTNC.   GRADIENT

   1    1    1     1     1    1.9000E+01  2.1427E-01   1.8786E+01  0.000E+00  0.000E+00  0.000E+00  1.09413E+03  1.082E+00  1.166E+01  5.249E-02  1.361E+00
   1    2    2     1     2    1.8786E+01  3.3054E-01   1.8455E+01  0.000E+00  0.000E+00  0.000E+00  1.08914E+03  1.077E+00  1.158E+01  8.107E-02  1.359E+00
   1    3    3     1     3    1.8455E+01  2.8064E-01   1.8175E+01  0.000E+00  0.000E+00  0.000E+00  1.08349E+03  1.072E+00  1.149E+01  6.892E-02  1.357E+00
   1    3    4     1     4    1.8175E+01  2.5740E-01   1.7917E+01  0.000E+00  0.000E+00  0.000E+00  1.07848E+03  1.068E+00  1.140E+01  6.328E-02  1.356E+00
   1    4    5     2     1    1.5917E+01  3.0542E-01   1.5612E+01  0.000E+00  0.000E+00  0.000E+00  1.07285E+03  9.157E-01  1.200E+01  7.800E-02  1.305E+00
   1    5    6     2     2    1.5612E+01  2.3438E-01   1.5377E+01  0.000E+00  0.000E+00  0.000E+00  1.06742E+03  9.063E-01  1.200E+01  6.000E-02  1.302E+00
   1    6    6     2     3    1.5377E+01  2.3388E-01   1.5143E+01  0.000E+00  0.000E+00  0.000E+00  1.06269E+03  8.980E-01  1.200E+01  6.000E-02  1.299E+00
   1    7    6     2     4    1.5143E+01  2.3338E-01   1.4910E+01  0.000E+00  0.000E+00  0.000E+00  1.05797E+03  8.897E-01  1.200E+01  6.000E-02  1.297E+00
   1    8    6     2     5    1.4910E+01  2.3289E-01   1.4677E+01  0.000E+00  0.000E+00  0.000E+00  1.05324E+03  8.814E-01  1.200E+01  6.000E-02  1.294E+00
   1    3    5     3     1    2.0000E+00  2.8252E-01   1.7175E+00  0.000E+00  0.000E+00  0.000E+00  1.07555E+03  1.909E+00  9.636E+00  7.227E-02  1.955E+00
   1    3    6     3     2    1.7175E+00  2.4905E-01   1.4684E+00  0.000E+00  0.000E+00  0.000E+00  1.07264E+03  1.727E+00  8.909E+00  6.682E-02  1.864E+00
   1    3    7     3     3    1.4684E+00  1.9718E-01   1.2712E+00  0.000E+00  0.000E+00  0.000E+00  1.06987E+03  1.555E+00  8.218E+00  5.547E-02  1.777E+00
   1    4    8     3     4    1.2712E+00  2.2567E-01   1.0456E+00  0.000E+00  0.000E+00  0.000E+00  1.06682E+03  1.364E+00  7.455E+00  6.709E-02  1.682E+00
   1    5    8     3     5    1.0456E+00  1.5790E-01   8.8768E-01  0.000E+00  0.000E+00  0.000E+00  1.06362E+03  1.164E+00  6.655E+00  4.991E-02  1.582E+00
   1    6    8     3     6    8.8768E-01  5.5980E-02   8.3170E-01  0.000E+00  0.000E+00  0.000E+00  1.06158E+03  1.036E+00  6.145E+00  1.844E-02  1.518E+00
   1    5   10     4     1    1.0000E+01  9.0919E-02   9.9091E+00  0.000E+00  0.000E+00  0.000E+00  1.07836E+03  6.368E-01  1.000E+01  2.500E-02  1.212E+00
   1    5    9     4     2    9.9091E+00  1.8158E-01   9.7275E+00  0.000E+00  0.000E+00  0.000E+00  1.07154E+03  6.315E-01  1.000E+01  5.000E-02  1.211E+00
   1    6    8     4     3    9.7275E+00  1.2689E-01   9.6006E+00  0.000E+00  0.000E+00  0.000E+00  1.06381E+03  6.256E-01  1.000E+01  3.500E-02  1.209E+00
   1    6    8     5     1    1.0432E+01  2.2686E-01   1.0205E+01  0.000E+00  0.000E+00  0.000E+00  1.05868E+03  6.790E-01  1.542E+01  6.166E-02  1.226E+00
   1    7    7     5     2    1.0205E+01  2.7894E-01   9.9265E+00  0.000E+00  0.000E+00  0.000E+00  1.05417E+03  6.732E-01  1.519E+01  7.594E-02  1.224E+00
   1    8    7     5     3    9.9265E+00  1.9221E-01   9.7343E+00  0.000E+00  0.000E+00  0.000E+00  1.04992E+03  6.676E-01  1.497E+01  5.241E-02  1.223E+00
   1    8    6     5     4    9.7343E+00  1.3577E-01   9.5985E+00  0.000E+00  0.000E+00  0.000E+00  1.04691E+03  6.637E-01  1.482E+01  3.706E-02  1.221E+00
   1    9    6     6     1    2.4276E+01  2.5176E-01   2.4024E+01  0.000E+00  0.000E+00  0.000E+00  1.04392E+03  1.196E+00  1.200E+01  6.000E-02  1.399E+00
   1   10    7     6     2    2.4024E+01  2.5131E-01   2.3773E+01  0.000E+00  0.000E+00  0.000E+00  1.03937E+03  1.188E+00  1.200E+01  6.000E-02  1.396E+00
   1   11    7     6     3    2.3773E+01  2.5086E-01   2.3522E+01  0.000E+00  0.000E+00  0.000E+00  1.03482E+03  1.181E+00  1.200E+01  6.000E-02  1.394E+00
   1   12    7     6     4    2.3522E+01  2.5041E-01   2.3271E+01  0.000E+00  0.000E+00  0.000E+00  1.03026E+03  1.173E+00  1.200E+01  6.000E-02  1.391E+00
   1   13    7     6     5    2.3271E+01  1.2783E-02   2.3259E+01  0.000E+00  0.000E+00  0.000E+00  1.02708E+03  1.169E+00  1.200E+01  2.400E-02  1.775E-01
   1   14    9     7     1    1.5000E+02  1.3830E+00   1.4862E+02  0.000E+00  0.000E+00  0.000E+00  1.03987E+03  2.288E+00  5.529E+01  5.593E-01  8.243E-01
   1   13    8     7     2    1.4862E+02  1.9989E+00   1.4662E+02  0.000E+00  0.000E+00  0.000E+00  1.03478E+03  2.279E+00  5.525E+01  6.147E-01  1.084E+00
   1   13    7     7     3    1.4662E+02  1.7544E+00   1.4486E+02  0.000E+00  0.000E+00  0.000E+00  1.02969E+03  2.269E+00  5.521E+01  5.584E-01  1.047E+00
   1   13    6     8     1    1.6812E+02  1.1876E+00   1.6693E+02  0.000E+00  0.000E+00  0.000E+00  1.02481E+03  2.936E+00  4.257E+01  4.338E-01  9.125E-01
   1   13    5     8     2    1.6693E+02  4.2401E-01   1.6651E+02  0.000E+00  0.000E+00  0.000E+00  1.01856E+03  2.931E+00  4.250E+01  4.330E-01  3.264E-01
   1   13    4     8     3    1.6651E+02 -1.5945E+00   1.6811E+02  0.000E+00  0.000E+00  0.000E+00  1.01231E+03  2.935E+00  4.255E+01  4.336E+00 -1.226E-01
   1   13    3     8     4    1.6811E+02 -3.2440E+00   1.7135E+02  0.000E+00  0.000E+00  0.000E+00  1.00608E+03  2.950E+00  4.278E+01  4.360E+00 -2.480E-01
   1   13    2     8     5    1.7135E+02 -2.4767E+00   1.7383E+02  0.000E+00  0.000E+00  0.000E+00  9.99844E+02  2.969E+00  4.305E+01  4.387E+00 -1.882E-01
   1   13    1     8     6    1.7383E+02 -1.9558E+00   1.7578E+02  0.000E+00  0.000E+00  0.000E+00  9.94858E+02  2.983E+00  4.326E+01  2.645E+00 -2.465E-01





UNSATURATED ZONE PACKAGE VOLUMETRIC BUDGET FOR  TIME STEP    30 STRESS PERIOD   49
  ------------------------------------------------------------------------------



     CUMULATIVE VOLUMES      L**3       RATES FOR THIS TIME STEP      L**3/T
     ------------------                 ------------------------

           IN:                                      IN:
           ---                                      ---
        INFILTRATION =  1847253370.1279          INFILTRATION =           0.8475

          OUT:                                     OUT:
          ----                                     ----
              UZF ET =  1694937957.6718                UZF ET =           0.7500
        UZF RECHARGE =   151723604.2037          UZF RECHARGE =           0.0003

            IN - OUT =      591808.2524              IN - OUT =       9.7236E-02

          STORAGE:                                 STORAGE:
          --------                                 --------
      STORAGE CHANGE =      591810.6154        STORAGE CHANGE =       9.7236E-02

 PERCENT DISCREPANCY IS DIFFERENCE BETWEEN IN-OUT MINUS CHANGE IN STORAGE
 DIVIDED BY THE AVERAGE OF IN AND OUT TIMES 100

 PERCENT DISCREPANCY =           0.00     PERCENT DISCREPANCY =           0.00






1
  VOLUMETRIC BUDGET FOR AGRICULTURAL FIELDS AT  END OF TIME STEP   30, STRESS PERIOD  49
  ------------------------------------------------------------------------------

     CUMULATIVE VOLUMES      L**3       RATES FOR THIS TIME STEP      L**3/T
     ------------------                 ------------------------

           IN:                                      IN:
           ---                                      ---
               AG WELLS  =  1740194176.0000                 AG WELLS  =           0.0000
      DIVERSION SEGMENTS =           0.0000        DIVERSION SEGMENTS =           0.0000
       IRRIGATION PONDS  =           0.0000         IRRIGATION PONDS  =           0.0000
           GW IRRIGATION =           0.0000             GW IRRIGATION =           0.0000
           SW IRRIGATION =           0.0000             SW IRRIGATION =           0.0000
        SYSTEM LOSSES GW =           0.0000          SYSTEM LOSSES GW =           0.0000
        SYSTEM LOSSES SW =           0.0000          SYSTEM LOSSES SW =           0.0000

                TOTAL IN =  1740194176.0000                  TOTAL IN =           0.0000

          OUT:                                     OUT:
          ----                                     ----
               AG WELLS  =           0.0000                 AG WELLS  =           0.0000
      DIVERSION SEGMENTS =           0.0000        DIVERSION SEGMENTS =           0.0000
       IRRIGATION PONDS  =           0.0000         IRRIGATION PONDS  =           0.0000
           GW IRRIGATION =  1740194176.0000             GW IRRIGATION =           0.0000
           SW IRRIGATION =           0.0000             SW IRRIGATION =           0.0000
        SYSTEM LOSSES GW =           0.0000          SYSTEM LOSSES GW =           0.0000
        SYSTEM LOSSES SW =           0.0000          SYSTEM LOSSES SW =           0.0000

               TOTAL OUT =  1740194176.0000                 TOTAL OUT =           0.0000

                IN - OUT =           0.0000                  IN - OUT =           0.0000

     PERCENT DISCREPANCY =           0.00         PERCENT DISCREPANCY =           0.00



1
  VOLUMETRIC BUDGET FOR ENTIRE MODEL AT END OF TIME STEP   30, STRESS PERIOD  49
  ------------------------------------------------------------------------------

     CUMULATIVE VOLUMES      L**3       RATES FOR THIS TIME STEP      L**3/T
     ------------------                 ------------------------

           IN:                                      IN:
           ---                                      ---
             STORAGE     =  2296887296.0000               STORAGE     =           6.6091
       CONSTANT HEAD     =           0.0000         CONSTANT HEAD     =           0.0000
     HEAD DEP BOUNDS     =    36183688.0000       HEAD DEP BOUNDS     =           0.2890
      STREAM LEAKAGE     =  1549613184.0000        STREAM LEAKAGE     =          12.4893
        UZF RECHARGE     =   151723712.0000          UZF RECHARGE     =       2.6378E-04
               GW ET     =           0.0000                 GW ET     =           0.0000
     SURFACE LEAKAGE     =           0.0000       SURFACE LEAKAGE     =           0.0000
           AG WELLS      =           0.0000             AG WELLS      =           0.0000

                TOTAL IN =  4034408192.0000                  TOTAL IN =          19.3876

          OUT:                                     OUT:
          ----                                     ----
             STORAGE     =   968478656.0000               STORAGE     =           9.8278
       CONSTANT HEAD     =           0.0000         CONSTANT HEAD     =           0.0000
     HEAD DEP BOUNDS     =    36829296.0000       HEAD DEP BOUNDS     =           0.2887
      STREAM LEAKAGE     =  1271305856.0000        STREAM LEAKAGE     =           9.2711
        UZF RECHARGE     =           0.0000          UZF RECHARGE     =           0.0000
               GW ET     =    17607784.0000                 GW ET     =           0.0000
     SURFACE LEAKAGE     =           0.0000       SURFACE LEAKAGE     =           0.0000
           AG WELLS      =  1740194176.0000             AG WELLS      =           0.0000

               TOTAL OUT =  4034415616.0000                 TOTAL OUT =          19.3876

                IN - OUT =       -7424.0000                  IN - OUT =       1.5259E-05

     PERCENT DISCREPANCY =          -0.00         PERCENT DISCREPANCY =           0.00






         TIME SUMMARY AT END OF TIME STEP   30 IN STRESS PERIOD   49
                    SECONDS     MINUTES      HOURS       DAYS        YEARS
                    -----------------------------------------------------------
   TIME STEP LENGTH  87667.      1461.1      24.352      1.0147     2.77799E-03
 STRESS PERIOD TIME 2.63000E+06  43833.      730.56      30.440     8.33397E-02
         TOTAL TIME 1.26325E+08 2.10542E+06  35090.      1462.1      4.0030    
1


 Run end date and time (yyyy/mm/dd hh:mm:ss): 2021/10/25 20:58:40
 Elapsed run time: 3.313 Seconds

