                                  MODFLOW-NWT-SWR1 
      U.S. GEOLOGICAL SURVEY MODULAR FINITE-DIFFERENCE GROUNDWATER-FLOW MODEL
                            VERSION 1.2.0 03/01/2020
                    BASED ON MODFLOW-2005 VERSION 1.12.00 02/03/2017

 LIST FILE: ./output/Agwater1_low.lst
                         UNIT    9

 OPENING ./input/Agwater1.ba6
 FILE TYPE:BAS6   UNIT   75   STATUS:OLD    
 FORMAT:FORMATTED              ACCESS:SEQUENTIAL          

 OPENING ./input/Agwater1.upw
 FILE TYPE:UPW   UNIT    7   STATUS:OLD    
 FORMAT:FORMATTED              ACCESS:SEQUENTIAL          

 OPENING ./input/Agwater1.dis
 FILE TYPE:DIS   UNIT    8   STATUS:OLD    
 FORMAT:FORMATTED              ACCESS:SEQUENTIAL          

 OPENING ./input/Agwater1.nwt
 FILE TYPE:NWT   UNIT   13   STATUS:OLD    
 FORMAT:FORMATTED              ACCESS:SEQUENTIAL          

 OPENING ./input/Agwater1.oc
 FILE TYPE:OC   UNIT   14   STATUS:OLD    
 FORMAT:FORMATTED              ACCESS:SEQUENTIAL          

 OPENING ./input/Agwater1.sfr
 FILE TYPE:SFR   UNIT   15   STATUS:OLD    
 FORMAT:FORMATTED              ACCESS:SEQUENTIAL          

 OPENING ./input/Agwater1.ghb
 FILE TYPE:GHB   UNIT   17   STATUS:OLD    
 FORMAT:FORMATTED              ACCESS:SEQUENTIAL          

 OPENING ./input/Agwater1.uzf
 FILE TYPE:UZF   UNIT   19   STATUS:OLD    
 FORMAT:FORMATTED              ACCESS:SEQUENTIAL          

 OPENING ./input/Agwater1.gag
 FILE TYPE:GAGE   UNIT   32   STATUS:OLD    
 FORMAT:FORMATTED              ACCESS:SEQUENTIAL          

 OPENING ./input/seg1_low.tab
 FILE TYPE:DATA   UNIT   55   STATUS:UNKNOWN
 FORMAT:FORMATTED              ACCESS:SEQUENTIAL          

 OPENING ./input/seg9.tab
 FILE TYPE:DATA   UNIT   56   STATUS:UNKNOWN
 FORMAT:FORMATTED              ACCESS:SEQUENTIAL          

 OPENING ./input/Agwater1.ag
 FILE TYPE:AG   UNIT   57   STATUS:OLD    
 FORMAT:FORMATTED              ACCESS:SEQUENTIAL          

 OPENING ./output/Agwater1_low.hed
 FILE TYPE:DATA   UNIT   62   STATUS:UNKNOWN
 FORMAT:FORMATTED              ACCESS:SEQUENTIAL          

 OPENING ./output/Agwater1gw_low.ts5
 FILE TYPE:DATA   UNIT  105   STATUS:UNKNOWN
 FORMAT:FORMATTED              ACCESS:SEQUENTIAL          

 OPENING ./output/Agwater1SW_low.ts9
 FILE TYPE:DATA   UNIT  107   STATUS:UNKNOWN
 FORMAT:FORMATTED              ACCESS:SEQUENTIAL          

 OPENING ./output/Agwater1SW_ET_low.ts9
 FILE TYPE:DATA   UNIT  108   STATUS:UNKNOWN
 FORMAT:FORMATTED              ACCESS:SEQUENTIAL          

 OPENING ./output/Agwater1_low.uzfot
 FILE TYPE:DATA(BINARY)   UNIT   61   STATUS:UNKNOWN
 FORMAT:UNFORMATTED            ACCESS:STREAM              

 OPENING ./output/Agwater1cbc_low.unf
 FILE TYPE:DATA(BINARY)   UNIT  102   STATUS:UNKNOWN
 FORMAT:UNFORMATTED            ACCESS:STREAM              

 OPENING ./output/Agwater1_low.uzf1
 FILE TYPE:DATA   UNIT   65   STATUS:UNKNOWN
 FORMAT:FORMATTED              ACCESS:SEQUENTIAL          

 OPENING ./output/Agwater1_low.uzf2
 FILE TYPE:DATA   UNIT   66   STATUS:UNKNOWN
 FORMAT:FORMATTED              ACCESS:SEQUENTIAL          

 OPENING ./output/Agwater1_low.uzf3
 FILE TYPE:DATA   UNIT   67   STATUS:UNKNOWN
 FORMAT:FORMATTED              ACCESS:SEQUENTIAL          

 OPENING ./output/Agwater1_low.uzf4
 FILE TYPE:DATA   UNIT   68   STATUS:UNKNOWN
 FORMAT:FORMATTED              ACCESS:SEQUENTIAL          

 OPENING ./output/Agwater1_low.flw
 FILE TYPE:DATA   UNIT   81   STATUS:UNKNOWN
 FORMAT:FORMATTED              ACCESS:SEQUENTIAL          

 OPENING ./output/Agwater1_low.sg1
 FILE TYPE:DATA   UNIT   83   STATUS:UNKNOWN
 FORMAT:FORMATTED              ACCESS:SEQUENTIAL          

 OPENING ./output/Agwater1_low.sg2
 FILE TYPE:DATA   UNIT   84   STATUS:UNKNOWN
 FORMAT:FORMATTED              ACCESS:SEQUENTIAL          

 OPENING ./output/Agwater1_low.sg3
 FILE TYPE:DATA   UNIT   85   STATUS:UNKNOWN
 FORMAT:FORMATTED              ACCESS:SEQUENTIAL          

 OPENING ./output/Agwater1_low.sg4
 FILE TYPE:DATA   UNIT   86   STATUS:UNKNOWN
 FORMAT:FORMATTED              ACCESS:SEQUENTIAL          

 OPENING ./output/Agwater1_low.sg5
 FILE TYPE:DATA   UNIT   87   STATUS:UNKNOWN
 FORMAT:FORMATTED              ACCESS:SEQUENTIAL          

 OPENING ./output/Agwater1_low.sg6
 FILE TYPE:DATA   UNIT   88   STATUS:UNKNOWN
 FORMAT:FORMATTED              ACCESS:SEQUENTIAL          

 OPENING ./output/Agwater1_low.sg7
 FILE TYPE:DATA   UNIT   89   STATUS:UNKNOWN
 FORMAT:FORMATTED              ACCESS:SEQUENTIAL          

 OPENING ./output/Agwater1_low.sg8
 FILE TYPE:DATA   UNIT   90   STATUS:UNKNOWN
 FORMAT:FORMATTED              ACCESS:SEQUENTIAL          

 OPENING ./output/Agwater1_low.sg9
 FILE TYPE:DATA   UNIT   91   STATUS:UNKNOWN
 FORMAT:FORMATTED              ACCESS:SEQUENTIAL          

 BAS -- BASIC PACKAGE, VERSION 1.1.4, 4/01/2018 INPUT READ FROM UNIT   75
 
 MODFLOW was compiled using mixed precision
 Precision of REAL variables:           6
 Precision of DOUBLE PRECISION variables:          15

 DISCRETIZATION INPUT DATA READ FROM UNIT    8
 #Test problem 2-- Discretization input
 #Example problem using the UZF1 Package
    1 LAYERS        15 ROWS        10 COLUMNS
   49 STRESS PERIOD(S) IN SIMULATION
 MODEL TIME UNIT IS SECONDS
 MODEL LENGTH UNIT IS FEET
  Confining bed flag for each layer:
   0

                     DELR =   5000.00    

                     DELC =   5000.00    



           TOP ELEVATION OF LAYER 1
 READING ON UNIT    8 WITH FORMAT: (10F7.0)            

            1           2           3           4           5           6           7           8           9          10
 ........................................................................................................................
   1    1105.       1105.       0.000       0.000       0.000       0.000       0.000       0.000       0.000       0.000    
   2    1105.       1095.       1105.       0.000       0.000       1100.       1100.       1110.       0.000       0.000    
   3    0.000       1100.       1085.       1080.       1078.       1076.       1073.       1090.       0.000       0.000    
   4    1110.       1100.       1090.       1085.       1076.       1080.       1080.       1070.       1100.       0.000    
   5    1110.       1100.       1085.       1080.       1078.       1074.       1077.       1066.       1075.       1080.    
   6    1105.       1095.       1080.       1077.       1073.       1069.       1070.       1063.       1085.       1095.    
   7    1105.       1090.       1075.       1072.       1070.       1065.       1065.       1069.       1090.       0.000    
   8    0.000       1080.       1070.       1068.       1063.       1060.       1063.       1067.       1090.       0.000    
   9    0.000       1075.       1065.       1062.       1058.       1052.       1055.       1065.       1090.       0.000    
  10    0.000       1070.       1060.       1055.       1046.       1046.       1044.       1060.       1088.       1100.    
  11    0.000       1055.       1050.       1045.       1041.       1042.       1040.       1050.       1075.       0.000    
  12    1027.       1028.       1028.       1032.       1032.       1033.       1032.       1040.       1060.       0.000    
  13    997.0       1004.       1008.       1014.       1020.       1027.       1032.       1038.       1050.       0.000    
  14    0.000       1030.       1040.       1045.       1050.       1050.       1050.       1050.       1044.       0.000    
  15    0.000       0.000       1080.       1080.       1080.       1080.       0.000       0.000       0.000       0.000    



             MODEL LAYER BOTTOM EL. FOR LAYER   1
 READING ON UNIT    8 WITH FORMAT: (10F7.0)            

            1           2           3           4           5           6           7           8           9          10
 ........................................................................................................................
   1    1000.       1000.       0.000       0.000       0.000       0.000       0.000       0.000       0.000       0.000    
   2    1000.       900.0       900.0       0.000       0.000       950.0       950.0       950.0       0.000       0.000    
   3    0.000       850.0       670.0       680.0       680.0       770.0       770.0       890.0       0.000       0.000    
   4    925.0       850.0       650.0       650.0       650.0       680.0       740.0       850.0       950.0       0.000    
   5    925.0       800.0       650.0       600.0       600.0       600.0       650.0       720.0       850.0       950.0    
   6    925.0       800.0       650.0       600.0       550.0       600.0       650.0       720.0       850.0       970.0    
   7    925.0       800.0       650.0       600.0       550.0       600.0       650.0       720.0       950.0       0.000    
   8    0.000       850.0       700.0       650.0       570.0       600.0       700.0       850.0       950.0       0.000    
   9    0.000       850.0       700.0       650.0       540.0       580.0       700.0       850.0       950.0       0.000    
  10    0.000       850.0       700.0       630.0       530.0       580.0       650.0       800.0       900.0       950.0    
  11    0.000       850.0       700.0       620.0       580.0       620.0       700.0       800.0       900.0       0.000    
  12    900.0       830.0       710.0       640.0       600.0       650.0       700.0       800.0       900.0       0.000    
  13    900.0       810.0       750.0       700.0       650.0       700.0       750.0       800.0       900.0       0.000    
  14    0.000       950.0       850.0       850.0       850.0       850.0       850.0       850.0       850.0       0.000    
  15    0.000       0.000       950.0       950.0       950.0       950.0       0.000       0.000       0.000       0.000    


 STRESS PERIOD     LENGTH       TIME STEPS     MULTIPLIER FOR DELT    SS FLAG
 ----------------------------------------------------------------------------
        1         86400.00          1                    1.000         SS
        2         2630000.         30                    1.000         TR
        3         2630000.         30                    1.000         TR
        4         2630000.         30                    1.000         TR
        5         2630000.         30                    1.000         TR
        6         2630000.         30                    1.000         TR
        7         2630000.         30                    1.000         TR
        8         2630000.         30                    1.000         TR
        9         2630000.         30                    1.000         TR
       10         2630000.         30                    1.000         TR
       11         2630000.         30                    1.000         TR
       12         2630000.         30                    1.000         TR
       13         2630000.         30                    1.000         TR
       14         2630000.         30                    1.000         TR
       15         2630000.         30                    1.000         TR
       16         2630000.         30                    1.000         TR
       17         2630000.         30                    1.000         TR
       18         2630000.         30                    1.000         TR
       19         2630000.         30                    1.000         TR
       20         2630000.         30                    1.000         TR
       21         2630000.         30                    1.000         TR
       22         2630000.         30                    1.000         TR
       23         2630000.         30                    1.000         TR
       24         2630000.         30                    1.000         TR
       25         2630000.         30                    1.000         TR
       26         2630000.         30                    1.000         TR
       27         2630000.         30                    1.000         TR
       28         2630000.         30                    1.000         TR
       29         2630000.         30                    1.000         TR
       30         2630000.         30                    1.000         TR
       31         2630000.         30                    1.000         TR
       32         2630000.         30                    1.000         TR
       33         2630000.         30                    1.000         TR
       34         2630000.         30                    1.000         TR
       35         2630000.         30                    1.000         TR
       36         2630000.         30                    1.000         TR
       37         2630000.         30                    1.000         TR
       38         2630000.         30                    1.000         TR
       39         2630000.         30                    1.000         TR
       40         2630000.         30                    1.000         TR
       41         2630000.         30                    1.000         TR
       42         2630000.         30                    1.000         TR
       43         2630000.         30                    1.000         TR
       44         2630000.         30                    1.000         TR
       45         2630000.         30                    1.000         TR
       46         2630000.         30                    1.000         TR
       47         2630000.         30                    1.000         TR
       48         2630000.         30                    1.000         TR
       49         2630000.         30                    1.000         TR

 COMBINED STEADY-STATE AND TRANSIENT SIMULATION



 
 #Test Simulation 2-- Example problem using the UZF1 Package                     
 #Modified from example Problem 1 of SFR1 documentation report                   
 THE FREE FORMAT OPTION HAS BEEN SELECTED



                     BOUNDARY ARRAY FOR LAYER   1
 READING ON UNIT   75 WITH FORMAT: (20I4)              

                1           2           3           4           5           6           7           8           9          10
 ............................................................................................................................
   1            1           1           0           0           0           0           0           0           0           0
   2            1           1           1           0           0           1           1           1           0           0
   3            0           1           1           1           1           1           1           1           0           0
   4            1           1           1           1           1           1           1           1           1           0
   5            1           1           1           1           1           1           1           1           1           1
   6            1           1           1           1           1           1           1           1           1           1
   7            1           1           1           1           1           1           1           1           1           0
   8            0           1           1           1           1           1           1           1           1           0
   9            0           1           1           1           1           1           1           1           1           0
  10            0           1           1           1           1           1           1           1           1           1
  11            0           1           1           1           1           1           1           1           1           0
  12            1           1           1           1           1           1           1           1           1           0
  13            1           1           1           1           1           1           1           1           1           0
  14            0           1           1           1           1           1           1           1           1           0
  15            0           0           1           1           1           1           0           0           0           0

 AQUIFER HEAD WILL BE SET TO   6999.0     AT ALL NO-FLOW NODES (IBOUND=0).



                       INITIAL HEAD FOR LAYER   1
 READING ON UNIT   75 WITH FORMAT: (10F8.0)            

            1           2           3           4           5           6           7           8           9          10
 ........................................................................................................................
   1    1093.       1089.       6999.       6999.       6999.       6999.       6999.       6999.       6999.       6999.    
   2    1090.       1087.       1081.       6999.       6999.       1072.       1071.       1071.       6999.       6999.    
   3    6999.       1079.       1078.       1074.       1072.       1071.       1069.       1068.       6999.       6999.    
   4    1069.       1071.       1070.       1067.       1065.       1064.       1064.       1066.       1066.       6999.    
   5    1065.       1064.       1063.       1062.       1061.       1061.       1060.       1062.       1066.       1068.    
   6    1060.       1058.       1057.       1056.       1056.       1057.       1057.       1059.       1062.       1066.    
   7    1056.       1053.       1052.       1051.       1051.       1052.       1053.       1055.       1056.       6999.    
   8    6999.       1046.       1046.       1046.       1046.       1046.       1048.       1050.       1050.       6999.    
   9    6999.       1039.       1039.       1039.       1040.       1041.       1042.       1043.       1044.       6999.    
  10    6999.       1031.       1032.       1033.       1034.       1035.       1037.       1038.       1039.       1042.    
  11    6999.       1021.       1023.       1027.       1029.       1030.       1032.       1034.       1036.       6999.    
  12    1001.       1009.       1015.       1020.       1023.       1026.       1029.       1030.       1034.       6999.    
  13    994.5      1000.0       1007.       1013.       1019.       1024.       1029.       1034.       1036.       6999.    
  14    6999.       1004.       1009.       1014.       1019.       1024.       1029.       1035.       1039.       6999.    
  15    6999.       6999.       1012.       1015.       1019.       1022.       6999.       6999.       6999.       6999.    

 OUTPUT CONTROL IS SPECIFIED ONLY AT TIME STEPS FOR WHICH OUTPUT IS DESIRED
 HEADS WILL BE SAVED WITH FORMAT: (10F10.3)           
 SAVED HEADS WILL BE LABELED
 COMPACT CELL-BY-CELL BUDGET FILES WILL BE WRITTEN
 HEAD PRINT FORMAT CODE IS   4    DRAWDOWN PRINT FORMAT CODE IS   0
 HEADS WILL BE SAVED ON UNIT   62    DRAWDOWNS WILL BE SAVED ON UNIT    0
 # NWT Input File
 # Test Problem 3 for MODFLOW-NWT
 #HEADTOL  FLUXTOL MAXITEROUT THICKFACT LINMETH IPRNWT IBOTAV OPTIONS DBDREDUCE DBDINCREASE DBDGAMMA MOMFACT BACKFLAG MAXBACKITER BACKTOL BACKREDUCE

 NWT1 -- Newton Solver, VERSION 1.1.4, 4/01/2018
         INPUT READ FROM UNIT 13

 SPECIFIED OPTION:
 SOLVER INPUT VALUES ARE SPECIFIED BY USER
 ***XMD linear solver will be used***
 
   CONVERGENCE CRITERION OF   0.100000E-03 FOR HEAD SOLUTION
   AND A TOLERANCE OF   0.100000E+01 FOR FLOW SOLUTION AND 
   A MAXIMUM OF   500 OUTER ITERATIONS. 


   D-B-D REDUCTION FACTOR OF    0.970000E+00 AND 
   A D-B-D INCREASE FACTOR OF    0.100000E-04 AND 
   A D-B-D RELAXATION OF    0.000000E+00 AND 
   A MOMENTUM FACTOR OF    0.100000E+00 .


 ***BACKTRACKING IS INACTIVE***
 XMD -- LINEAR SOLUTION BY XMD PACKAGE VERSION 1.30
     BY MOTOMU IBARAKI, OHIO STATE UNIVERSITY, COLOMBUS, OH
                 INPUT READ FROM UNIT 13
 ACCELERATION METHOD                    (IACL) =         1
 NODE ORDERING FLAG                   (NORDER) =         0
 LEVEL OF FILL                         (LEVEL) =         7
 MAXIMUM NUMBER OF ORTHOGONALIZATIONS  (NORTH) =         7
 INDEX FOR USING REDUCED SYSTEM      (IREDSYS) =         1
 RESID. REDUCTION CONVERGE CRITERION  (RRCTOL) =  0.000000E+00
 INDEX FOR USING DROP TOLERANCE     (IDROPTOL) =         1
 DROP TOLERANCE VALUE                  (EPSRN) =  0.500000E-02
 CONVERGENCE CRITERIA OF           (HCLOSEXMD) =  0.100000E-03
 MAX. NUMBER OF LINEAR ITERATIONS  (MXITERXMD) =        50


 UPW1 -- UPSTREAM WEIGHTING FLOW PACKAGE, VERSION 1.1.4, 4/01/2018
         INPUT READ FROM UNIT  7

 #Layer-Property Flow Package input for test simulation 2
 CELL-BY-CELL FLOWS WILL BE SAVED ON UNIT  102
 No named parameters

   LAYER FLAGS:
 LAYER       LAYTYP          LAYAVG    CHANI           LAYVKA           LAYWET
 ---------------------------------------------------------------------------
    1             1             0     1.000E+00             0             0

   INTERPRETATION OF LAYER FLAGS:
                        INTERBLOCK     HORIZONTAL    DATA IN
         LAYER TYPE   TRANSMISSIVITY   ANISOTROPY   ARRAY VKA   WETTABILITY
 LAYER   (LAYTYP)        (LAYAVG)      (CHANI)     (LAYVKA)       (LAYWET)
 ---------------------------------------------------------------------------
    1   CONVERTIBLE      HARMONIC     1.000E+00    VERTICAL K  NON-WETTABLE



              HYD. COND. ALONG ROWS FOR LAYER   1
 READING ON UNIT    7 WITH FORMAT: (10F5.0)            

            1           2           3           4           5           6           7           8           9          10
 ........................................................................................................................
   1   2.0000E-03  2.0000E-03   0.000       0.000       0.000       0.000       0.000       0.000       0.000       0.000    
   2   4.0000E-04  2.0000E-03  2.0000E-03   0.000       0.000      4.0000E-04  4.0000E-04  4.0000E-04   0.000       0.000    
   3    0.000      4.0000E-04  2.0000E-03  2.0000E-03  4.0000E-04  4.0000E-04  4.0000E-04  4.0000E-04   0.000       0.000    
   4   4.0000E-04  4.0000E-04  4.0000E-04  2.0000E-03  2.0000E-03  2.0000E-03  4.0000E-04  4.0000E-04  4.0000E-04   0.000    
   5   4.0000E-04  4.0000E-04  4.0000E-04  2.0000E-03  2.0000E-03  2.0000E-03  2.0000E-03  2.0000E-03  2.0000E-03  2.0000E-03
   6   4.0000E-04  4.0000E-04  4.0000E-04  2.0000E-03  2.0000E-03  2.0000E-03  2.0000E-03  2.0000E-03  4.0000E-04  4.0000E-04
   7   4.0000E-04  4.0000E-04  4.0000E-04  2.0000E-03  2.0000E-03  2.0000E-03  2.0000E-03  2.0000E-03  4.0000E-04   0.000    
   8    0.000      4.0000E-04  4.0000E-04  2.0000E-03  2.0000E-03  2.0000E-03  2.0000E-03  4.0000E-04  4.0000E-04   0.000    
   9    0.000      4.0000E-04  4.0000E-04  2.0000E-03  2.0000E-03  2.0000E-03  2.0000E-03  4.0000E-04  4.0000E-04   0.000    
  10    0.000      4.0000E-04  4.0000E-04  2.0000E-03  2.0000E-03  2.0000E-03  2.0000E-03  4.0000E-04  4.0000E-04  4.0000E-04
  11    0.000      4.0000E-04  4.0000E-04  2.0000E-03  2.0000E-03  2.0000E-03  2.0000E-03  4.0000E-04  4.0000E-04   0.000    
  12   4.0000E-04  4.0000E-04  2.0000E-03  2.0000E-03  2.0000E-03  2.0000E-03  2.0000E-03  4.0000E-04  4.0000E-04   0.000    
  13   2.0000E-03  2.0000E-03  2.0000E-03  2.0000E-03  2.0000E-03  2.0000E-03  2.0000E-03  2.0000E-03  2.0000E-03   0.000    
  14    0.000      4.0000E-04  4.0000E-04  4.0000E-04  4.0000E-04  4.0000E-04  4.0000E-04  4.0000E-04  2.0000E-03   0.000    
  15    0.000       0.000      4.0000E-04  4.0000E-04  4.0000E-04  4.0000E-04   0.000       0.000       0.000       0.000    

      VERTICAL HYD. COND. =  1.000000E-06 FOR LAYER   1

         SPECIFIC STORAGE =  1.000000E-06 FOR LAYER   1



                     SPECIFIC YIELD FOR LAYER   1
 READING ON UNIT    7 WITH FORMAT: (10F5.0)            

            1           2           3           4           5           6           7           8           9          10
 ........................................................................................................................
   1   0.2000      0.2000       0.000       0.000       0.000       0.000       0.000       0.000       0.000       0.000    
   2   0.1000      0.2000      0.2000       0.000       0.000      0.1000      0.1000      0.1000       0.000       0.000    
   3    0.000      0.1000      0.2000      0.2000      0.1000      0.1000      0.1000      0.1000       0.000       0.000    
   4   0.1000      0.1000      0.1000      0.2000      0.2000      0.2000      0.1000      0.1000      0.1000       0.000    
   5   0.1000      0.1000      0.1000      0.2000      0.2000      0.2000      0.2000      0.2000      0.2000      0.2000    
   6   0.1000      0.1000      0.1000      0.2000      0.2000      0.2000      0.2000      0.2000      0.1000      0.1000    
   7   0.1000      0.1000      0.1000      0.2000      0.2000      0.2000      0.2000      0.2000      0.1000       0.000    
   8    0.000      0.1000      0.1000      0.2000      0.2000      0.2000      0.2000      0.1000      0.1000       0.000    
   9    0.000      0.1000      0.1000      0.2000      0.2000      0.2000      0.2000      0.1000      0.1000       0.000    
  10    0.000      0.1000      0.1000      0.2000      0.2000      0.2000      0.2000      0.1000      0.1000      0.1000    
  11    0.000      0.1000      0.1000      0.2000      0.2000      0.2000      0.2000      0.1000      0.1000       0.000    
  12   0.1000      0.1000      0.2000      0.2000      0.2000      0.2000      0.2000      0.1000      0.1000       0.000    
  13   0.2000      0.2000      0.2000      0.2000      0.2000      0.2000      0.2000      0.2000      0.2000       0.000    
  14    0.000      0.1000      0.1000      0.1000      0.1000      0.1000      0.1000      0.1000      0.2000       0.000    
  15    0.000       0.000      0.1000      0.1000      0.1000      0.1000       0.000       0.000       0.000       0.000    

 GHB -- GENERAL-HEAD BOUNDARY PACKAGE, VERSION 7, 5/2/2005
         INPUT READ FROM UNIT   17
 No named parameters
 MAXIMUM OF      2 ACTIVE GHB CELLS AT ONE TIME
 CELL-BY-CELL FLOWS WILL BE PRINTED WHEN ICBCFL NOT 0


     0 GHB parameters

 SFR7 -- STREAMFLOW ROUTING PACKAGE, VERSION 1.0.5, 2012-04-05
         INPUT READ FROM UNIT  15
 #SFR2 Package input for Testing supplimental pumping and irrigation
 No named parameters

 PROCESSING SFR2 OPTIONS
 
          2 Specified inflow files will be read with a maximum of       1446 row entries per file
 
Stream loss will be calculated as a factor of the streambed hydraulic conductivity. Multiplication factor is equal to     0.1000000015E+00

 END PROCESSING SFR2 OPTIONS
 


 NUMBER OF STREAM REACHES IS   38

 NUMBER OF STREAM SEGMENTS IS    9

 NUMBER OF STREAM PARAMETERS IS    0

 NUMBER OF STREAM SEGMENTS DEFINED USING PARAMETERS IS              0

 MAXIMUM ERROR FOR STREAM LEAKAGE RATES IS  1.00E-06

 CONSTANT FOR MANNINGS EQUATION IS  1.4860E+00



 STREAM OUTPUT WILL BE WRITTEN TO FILE ON UNIT   81


   STREAM NETWORK DESCRIPTION: 

   LAYER    ROW    COL   SEGMENT   REACH     LENGTH
                          NUMBER   NUMBER    IN CELL        
   --------------------------------------------------
      1      1      1       1        1    4.5000E+03
      1      2      2       1        2    7.0000E+03
      1      3      3       1        3    6.0000E+03
      1      3      4       1        4    5.5500E+03
      1      4      5       2        1    6.5000E+03
      1      5      6       2        2    5.0000E+03
      1      6      6       2        3    5.0000E+03
      1      7      6       2        4    5.0000E+03
      1      8      6       2        5    5.0000E+03
      1      3      5       3        1    5.0000E+03
      1      3      6       3        2    5.0000E+03
      1      3      7       3        3    4.5000E+03
      1      4      8       3        4    6.0000E+03
      1      5      8       3        5    5.0000E+03
      1      6      8       3        6    2.0000E+03
      1      5     10       4        1    2.5000E+03
      1      5      9       4        2    5.0000E+03
      1      6      8       4        3    3.5000E+03
      1      6      8       5        1    4.0000E+03
      1      7      7       5        2    5.0000E+03
      1      8      7       5        3    3.5000E+03
      1      8      6       5        4    2.5000E+03
      1      9      6       6        1    5.0000E+03
      1     10      7       6        2    5.0000E+03
      1     11      7       6        3    5.0000E+03
      1     12      7       6        4    5.0000E+03
      1     13      7       6        5    2.0000E+03
      1     14      9       7        1    5.0000E+03
      1     13      8       7        2    5.5000E+03
      1     13      7       7        3    5.0000E+03
      1     13      6       8        1    5.0000E+03
      1     13      5       8        2    5.0000E+03
      1     13      4       8        3    5.0000E+03
      1     13      3       8        4    5.0000E+03
      1     13      2       8        5    5.0000E+03
      1     13      1       8        6    3.0000E+03
      1      8      6       9        1    3.0000E+03
      1      8      5       9        2    3.0000E+03




 UZF1 -- UNSATURATED FLOW PACKAGE, VERSION 1.5, 09/10/2019
         INPUT READ FROM UNIT 19
 #UZF Package input for test simulation 2
 No named parameters

 PROCESSING UZF OPTIONS
 
 
 INITIAL WATER CONTENT (THTI) WILL BE 
READ FOR THE FIRST SS OR TR STRESS PERIOD
 
 
 RESIDUAL WATER CONTENT (THTR) WILL BE 
READ AND USED FOR THE FIRST TRANSIENT STRESS 
PERIOD
 
 
AIR ENTRY PRESSURE AND ROOT PRESSURE WILL BE 
SPECIFIED BY USER AND UZ ET WILL BE SIMULATED 
AS PRESSURE-HEAD DEPENDENT
 
 
INFILTRATION WILL BE REJECTED USING 
LAND SURFACE K
 
 
HYDRAULIC CONDUCTIVITY OF LAND SURFACE 
WILL BE READ
 

 END PROCESSING UZF OPTIONS



            AREAL EXTENT OF UZ FLOW
 READING ON UNIT   19 WITH FORMAT: (20I4)              

                1           2           3           4           5           6           7           8           9          10
 ............................................................................................................................
   1            1           1           0           0           0           0           0           0           0           0
   2            1           1           1           0           0           1           1           1           0           0
   3            0           1           1           1           1           1           1           1           0           0
   4            1           1           1           1           1           1           1           1           1           0
   5            1           1           1           1           1           1           1           1           1           1
   6            1           1           1           1           1           1           1           1           1           1
   7            1           1           1           1           1           1           1           1           1           0
   8            0           1           1           1           1           1           1           1           1           0
   9            0           1           1           1           1           1           1           1           1           0
  10            0           1           1           1           1           1           1           1           1           1
  11            0           1           1           1           1           1           1           1           1           0
  12            1           1           1           1           1           1           1           1           1           0
  13            1           1           1           1           1           1           1           1           1           0
  14            0           1           1           1           1           1           1           1           1           0
  15            0           0           1           1           1           1           0           0           0           0
 OPTION 1 -- RECHARGE IN UZF TO TOP LAYER ONLY 



            ROUTING OVERLAND RUNOFF
 READING ON UNIT   19 WITH FORMAT: (20I4)              

                1           2           3           4           5           6           7           8           9          10
 ............................................................................................................................
   1            1           1           0           0           0           0           0           0           0           0
   2            1           1           1           0           0           3           3           3           0           0
   3            0           1           1           1           3           3           3           3           0           0
   4            8           8           2           2           2           2           2           3           3           0
   5            8           8           8           8           2           2           2           3           4           4
   6            8           8           8           8           8           2           2           4           4           4
   7            8           8           8           8           8           2           5           5           5           0
   8            0           8           8           8           8           2           5           5           5           0
   9            0           8           8           8           8           6           6           6           6           0
  10            0           8           8           8           8           6           6           6           6           6
  11            0           8           8           8           8           8           6           6           7           0
  12            8           8           8           8           8           8           6           7           7           0
  13            8           8           8           8           8           8           7           7           7           0
  14            0           8           8           8           8           8           7           7           7           0
  15            0           0           8           8           8           8           0           0           0           0



               SATURATED VERTICAL K
 READING ON UNIT   19 WITH FORMAT: (10F4.0)            

            1           2           3           4           5           6           7           8           9          10
 ........................................................................................................................
   1   4.6000E-05  4.6000E-05   0.000       0.000       0.000       0.000       0.000       0.000       0.000       0.000    
   2   4.6000E-05  4.6000E-05  4.6000E-05   0.000       0.000      4.6000E-05  4.6000E-05  4.6000E-05   0.000       0.000    
   3    0.000      4.6000E-05  4.6000E-05  4.6000E-05  4.6000E-05  4.6000E-05  4.6000E-05  4.6000E-05   0.000       0.000    
   4   4.6000E-05  4.6000E-05  4.6000E-05  4.6000E-05  4.6000E-05  4.6000E-05  4.6000E-05  4.6000E-05  4.6000E-05   0.000    
   5   4.6000E-05  4.6000E-05  4.6000E-05  4.6000E-05  4.6000E-05  4.6000E-05  4.6000E-05  4.6000E-05  4.6000E-05  4.6000E-05
   6   4.6000E-05  4.6000E-05  4.6000E-05  4.6000E-05  4.6000E-05  4.6000E-05  4.6000E-05  4.6000E-05  4.6000E-05  4.6000E-05
   7   4.6000E-05  4.6000E-05  4.6000E-05  4.6000E-05  4.6000E-05  4.6000E-05  4.6000E-05  4.6000E-05  4.6000E-05   0.000    
   8    0.000      4.6000E-05  4.6000E-05  4.6000E-05  4.6000E-05  4.6000E-05  4.6000E-05  4.6000E-05  4.6000E-05   0.000    
   9    0.000      4.6000E-05  4.6000E-05  4.6000E-05  4.6000E-05  4.6000E-05  4.6000E-05  4.6000E-05  4.6000E-05   0.000    
  10    0.000      4.6000E-05  4.6000E-05  4.6000E-05  4.6000E-05  4.6000E-05  4.6000E-05  4.6000E-05  4.6000E-05  4.6000E-05
  11    0.000      4.6000E-05  4.6000E-05  4.6000E-05  4.6000E-05  4.6000E-05  4.6000E-05  4.6000E-05  4.6000E-05   0.000    
  12   4.6000E-05  4.6000E-05  4.6000E-05  4.6000E-05  4.6000E-05  4.6000E-05  4.6000E-05  4.6000E-05  4.6000E-05   0.000    
  13   4.6000E-05  4.6000E-05  4.6000E-05  4.6000E-05  4.6000E-05  4.6000E-05  4.6000E-05  4.6000E-05  4.6000E-05   0.000    
  14    0.000      4.6000E-05  4.6000E-05  4.6000E-05  4.6000E-05  4.6000E-05  4.6000E-05  4.6000E-05  4.6000E-05   0.000    
  15    0.000       0.000      4.6000E-05  4.6000E-05  4.6000E-05  4.6000E-05   0.000       0.000       0.000       0.000    



            LAND SURFACE VERTICAL K
 READING ON UNIT   19 WITH FORMAT: (10F4.0)            

            1           2           3           4           5           6           7           8           9          10
 ........................................................................................................................
   1   1.0000E-05  1.0000E-05   0.000       0.000       0.000       0.000       0.000       0.000       0.000       0.000    
   2   1.0000E-05  1.0000E-05  1.0000E-05   0.000       0.000      1.0000E-05  1.0000E-05  1.0000E-05   0.000       0.000    
   3    0.000      1.0000E-05  1.0000E-05  1.0000E-05  1.0000E-05  1.0000E-05  1.0000E-05  1.0000E-05   0.000       0.000    
   4   1.0000E-05  1.0000E-05  1.0000E-05  1.0000E-05  1.0000E-05  1.0000E-05  1.0000E-05  1.0000E-05  1.0000E-05   0.000    
   5   1.0000E-05  1.0000E-05  1.0000E-05  1.0000E-05  1.0000E-05  1.0000E-05  1.0000E-05  1.0000E-05  1.0000E-05  1.0000E-05
   6   1.0000E-05  1.0000E-05  1.0000E-05  1.0000E-05  1.0000E-05  1.0000E-05  1.0000E-05  1.0000E-05  1.0000E-05  1.0000E-05
   7   1.0000E-05  1.0000E-05  1.0000E-05  1.0000E-05  1.0000E-05  1.0000E-05  1.0000E-05  1.0000E-05  1.0000E-05   0.000    
   8    0.000      1.0000E-05  1.0000E-05  1.0000E-05  1.0000E-05  1.0000E-05  1.0000E-05  1.0000E-05  1.0000E-05   0.000    
   9    0.000      1.0000E-05  1.0000E-05  1.0000E-05  1.0000E-05  1.0000E-05  1.0000E-05  1.0000E-05  1.0000E-05   0.000    
  10    0.000      1.0000E-05  1.0000E-05  1.0000E-05  1.0000E-05  1.0000E-05  1.0000E-05  1.0000E-05  1.0000E-05  1.0000E-05
  11    0.000      1.0000E-05  1.0000E-05  1.0000E-05  1.0000E-05  1.0000E-05  1.0000E-05  1.0000E-05  1.0000E-05   0.000    
  12   1.0000E-05  1.0000E-05  1.0000E-05  1.0000E-05  1.0000E-05  1.0000E-05  1.0000E-05  1.0000E-05  1.0000E-05   0.000    
  13   1.0000E-05  1.0000E-05  1.0000E-05  1.0000E-05  1.0000E-05  1.0000E-05  1.0000E-05  1.0000E-05  1.0000E-05   0.000    
  14    0.000      1.0000E-05  1.0000E-05  1.0000E-05  1.0000E-05  1.0000E-05  1.0000E-05  1.0000E-05  1.0000E-05   0.000    
  15    0.000       0.000      1.0000E-05  1.0000E-05  1.0000E-05  1.0000E-05   0.000       0.000       0.000       0.000    

     BROOKS-COREY EPSILON =   7.50000    

  SATURATED WATER CONTENT =  0.380000    

   RESIDUAL WATER CONTENT =  0.200000    

    INITIAL WATER CONTENT =  0.200000    

UNSATURATED FLOW RESULTS WILL BE PRINTED TO SEPARATE FILES FOR SELECTED MODEL CELLS, AND TIME STEPS AS DEFINED BY OUTPUT CONTROL PACKAGE 

SELECTED MODEL CELLS ARE: 
 ROW NUMBER  COLUMN NUMBER  FORTRAN UNIT NUMBER  OUTPUT OPTION


       6             4                 65                 1
       6             5                 66                 2
       8             4                 67                 3
       0             0                 68                 4



   9 GAGING STATIONS WERE SPECIFIED.
     (Lakes are identified by a negative value of the Lake Number)
     RECORDS WILL BE WRITTEN TO SEPARATE OUTPUT FILES REPRESENTED BY FOLLOWING UNIT NUMBERS:

 Stream Gages:
  GAGE #   SEGMENT   REACH   UNIT   OUTTYPE
       1       1       4      83       1
       2       2       5      84       1
       3       3       5      85       1
       4       4       3      86       1
       5       5       4      87       4
       6       6       5      88       4
       7       7       3      89       4
       8       8       6      90       4
       9       9       1      91       5





 AG -- AG PACKAGE FOR NWT VERSION 1.2.0,  3/03/2020 INPUT READ FROM UNIT   57
 # AG options

 PROCESSING AG OPTIONS
 
 AGRICULTURAL DEMANDS WILL BE CALCULATED USING ET DEFICIT
 
 
 OPTION TO APPLY SURFACE WATER AS IRRIGATION IS ACTIVE. DIVERTED SURFACE WATER WILL BE APPLIED TO          1 CELLS/RHUS.
 
 
 OPTION TO PUMP SUPPLEMENTARY WATER FOR SURFACE DIVERSION SHORTFALL IS ACTIVATED.  A TOTAL OF             6 SUPPLEMENTAL WELLS ARE ACTIVE
 
 
 OPTION TO APPLY PUMPED WATER AS IRRIGATION IS ACTIVE. PUMPED IRRIGATION WATER WILL BE APPLIED TO          6 CELLS/RHUS.
 
 
 THE MAXIMUM NUMBER OF WELLS FOR SUPPLEMENTING DIVERSIONS OR APPLYING IRRIGATION IS          6 WELLS.
 
 
  UNFORMATTED CELL BY CELL RATES FOR SUP AND IRR WELLS WILL BE SAVED TO FILE UNIT NUMBER         -2
 
 
  UNFORMATTED CELL BY CELL RATES FOR SUP AND IRR WELLS WILL BE SAVED TO FILE UNIT NUMBER         -2
 
 
  UNFORMATTED CELL BY CELL RATES FOR SUP AND IRR WELLS WILL BE SAVED TO FILE UNIT NUMBER         -2
 
 
  UNFORMATTED CELL BY CELL RATES FOR SUP AND IRR WELLS WILL BE SAVED TO FILE UNIT NUMBER         -2
 
 
  GROUND WATER IRRIGATION, POTENTIAL AND ACTUAL ET WILL BE SAVED TO TIMES SERIES OUTPUT FILES.
 
 
  SURFACE WATER IRRIGATION, POTENTIAL AND ACTUAL ET WILL BE SAVED TO TIMES SERIES OUTPUT FILES.
 
 
  SURFACE WATER IRRIGATION, POTENTIAL AND ACTUAL ET WILL BE SAVED TO TIMES SERIES OUTPUT FILES.
 

 END PROCESSING AG OPTIONS
 # AG time series

 PROCESSING TIME SERIES

 FINISHED READING TIME SERIES
 A total number of          1 AG output time series files were activated for SURFACE WATER 
 A total number of          1 AG output time series files were activated for GROUNDWATER 
 A total number of          1 AG output time series files were activated for SURFACE WATER ET
 A total number of          0 AG output time series files were activated for GROUNDWATER ET
 A total number of          0 AG output time series files were activated for POND ET
 A total number of          0 AG output time series files were activated for POND IRRIGATION
1
                            STRESS PERIOD NO.    1, LENGTH =   86400.00    
                            -----------------------------------------------

                              NUMBER OF TIME STEPS =     1

                               MULTIPLIER FOR DELT =     1.000

                            INITIAL TIME STEP SIZE =   86400.00    

 BOUND. NO. LAYER   ROW   COL     STAGE      CONDUCTANCE         
 ----------------------------------------------------------------
      1      1     13      1       988.0          0.3800E-01
      2      1     14      9       1045.          0.3800E-01

      2 GHB CELLS



 CLASSIFICATION & COUNT OF STREAM SEGMENTS BASED ON SOURCE OF INFLOW:

                HEADWATER     DIVERSION     RECEIVES TRIBUTARY FLOW
                ---------     ---------     -----------------------
                     3              2               4



                    INPUT DATA FOR EACH STREAM SEGMENT
 ---------------------------------------------------------------------------------------------

 SEGMENT    SEG.     INFLOW   OVERLAND   STREAM    STREAM   ICALC  OUTFLOW  DIVERSION PRIORITY
    NO.    LENGTH     RATE     RUNOFF      ET       PPT.    METH.  TO SEG.  FROM SEG.    NO.

      1  2.305E+04 2.500E+01 0.000E+00 0.000E+00 0.000E+00    4        2        0        0
      2  2.650E+04 0.000E+00 0.000E+00 0.000E+00 0.000E+00    1        6        0        0
      3  2.750E+04 2.000E+00 0.000E+00 0.000E+00 0.000E+00    0        5        1        0
      4  1.100E+04 1.000E+01 0.000E+00 0.000E+00 0.000E+00    1        5        0        0
      5  1.500E+04 0.000E+00 0.000E+00 0.000E+00 0.000E+00    3        6        0        0
      6  2.200E+04 0.000E+00 0.000E+00 0.000E+00 0.000E+00    1        8        0        0
      7  1.550E+04 1.500E+02 0.000E+00 0.000E+00 0.000E+00    2        8        0        0
      8  2.800E+04 0.000E+00 0.000E+00 0.000E+00 0.000E+00    2        0        0        0
      9  6.000E+03 0.000E+00 0.000E+00 0.000E+00 0.000E+00    1        0        2        0


         STREAMBED PROPERTIES AND STREAM DIMENSIONS

 SEGMENT     BED HYD. COND.      BED THICKNESS     ELEV.-TOP OF BED     WIDTH OF STREAM     DEPTH OF STREAM    STREAM ROUGHNESS
    No.     UPPER     LOWER     UPPER     LOWER     UPPER     LOWER     UPPER     LOWER     UPPER     LOWER   CHANNEL      BANK

     1  3.000E-05 3.000E-05 3.000E+00 3.000E+00 1.095E+03 1.075E+03
     2  3.000E-05 3.000E-05 3.000E+00 3.000E+00 1.075E+03 1.050E+03 1.200E+01 1.200E+01                     3.000E-02
     3  3.000E-05 3.000E-05 2.000E+00 2.000E+00 1.075E+03 1.060E+03 1.000E+01 6.000E+00 2.000E+00 1.000E+00
     4  3.000E-05 3.000E-05 3.000E+00 3.000E+00 1.080E+03 1.060E+03 1.000E+01 1.000E+01                     3.000E-02
     5  3.000E-05 3.000E-05 3.000E+00 3.000E+00 1.060E+03 1.045E+03
     6  3.000E-05 3.000E-05 3.000E+00 3.000E+00 1.045E+03 1.025E+03 1.200E+01 1.200E+01                     3.000E-02
     7  6.000E-05 6.000E-05 3.000E+00 3.000E+00 1.040E+03 1.025E+03                                         2.500E-02 4.500E-02
     8  6.000E-05 6.000E-05 3.000E+00 3.000E+00 1.025E+03 9.900E+02                                         2.500E-02 4.500E-02
     9  0.000E+00 0.000E+00 3.000E+00 3.000E+00 1.079E+03 1.078E+03 4.000E+00 4.000E+00                     3.000E-02

  EIGHT POINT CROSS-SECTION DATA FOR SEGMENTS WITH ICALC = 2
    X VALUES X VALUES START FROM LEFT SIDE LOOKING DOWNSTREAM

     SEGMENT NO.        X1        X2        X3        X4        X5        X6        X7        X8
            7      0.000E+00 1.000E+01 8.000E+01 1.000E+02 1.500E+02 1.700E+02 2.400E+02 2.500E+02
            8      0.000E+00 1.000E+01 8.000E+01 1.000E+02 1.500E+02 1.700E+02 2.400E+02 2.500E+02

    Z VALUES ARE RELATIVE TO STREAMBED ELEVATION

     SEGMENT NO.          Z1        Z2        Z3        Z4        Z5        Z6        Z7        Z8
            7      2.000E+01 1.300E+01 1.000E+01 2.000E+00 0.000E+00 1.000E+01 1.300E+01 2.000E+01
            8      2.500E+01 1.700E+01 1.300E+01 4.000E+00 0.000E+00 1.000E+01 1.600E+01 2.000E+01

 STREAMFLOW RELATION WITH DEPTH IS BASED ON EQUATION Q = CDPTH*(DEPTH)**FDPTH
 STREAMFLOW RELATION WITH WIDTH IS BASED ON EQUATION Q = AWDTH*(WIDTH)**BWDTH

 SEGMENT NO.      CDPTH     FDPTH    AWDTH     BWDTH

          5 3.000E-01 3.500E-01 3.800E+00 6.000E-01

 STREAMFLOW RELATION WITH DEPTH AND WIDTH IS BASED ON TABULATED VALUES

  SEGMENT NO.   STREAMFLOW       DEPTH       WIDTH

          1     5.0000E-01   2.5000E-01   3.0000E+00
          1     1.0000E+00   4.0000E-01   3.5000E+00
          1     2.0000E+00   5.5000E-01   4.2000E+00
          1     4.0000E+00   7.0000E-01   5.3000E+00
          1     7.0000E+00   8.0000E-01   7.0000E+00
          1     1.0000E+01   9.0000E-01   8.5000E+00
          1     2.0000E+01   1.1000E+00   1.2000E+01
          1     3.0000E+01   1.2500E+00   1.4000E+01
          1     5.0000E+01   1.4000E+00   1.7000E+01
          1     7.5000E+01   1.7000E+00   2.0000E+01
          1     1.0000E+02   1.8000E+00   2.2000E+01



TABULAR INFLOWS WERE READ FOR SEGMENT      1
FROM FILE UNIT NUMBER     55

          TIMES                    INFLOWS
         0.0000000000E+00     0.1875000000E+01
         0.8640000000E+05     0.8250000000E+01
         0.2760000000E+07     0.1575000000E+02
         0.5270000000E+07     0.2887500000E+02
         0.7950000000E+07     0.1050000000E+02
         0.1050000000E+08     0.3712500000E+02
         0.1320000000E+08     0.3112500000E+02
         0.1580000000E+08     0.2812500000E+02
         0.1850000000E+08     0.2287500000E+02
         0.2120000000E+08     0.1762500000E+02
         0.2380000000E+08     0.1312500000E+02
         0.2640000000E+08     0.9750000000E+01
         0.2900000000E+08     0.8625000000E+01
         0.3170000000E+08     0.7125000000E+01
         0.3440000000E+08     0.7875000000E+01
         0.3680000000E+08     0.3675000000E+02
         0.3950000000E+08     0.2812500000E+02
         0.4210000000E+08     0.2362500000E+02
         0.4480000000E+08     0.2175000000E+02
         0.4730000000E+08     0.2025000000E+02
         0.5000000000E+08     0.1387500000E+02
         0.5270000000E+08     0.9375000000E+01
         0.5530000000E+08     0.8250000000E+01
         0.5800000000E+08     0.7875000000E+01
         0.6060000000E+08     0.7500000000E+01
         0.6320000000E+08     0.7125000000E+01
         0.6330000000E+08     0.8250000000E+01
         0.6600000000E+08     0.1575000000E+02
         0.6850000000E+08     0.2887500000E+02
         0.7120000000E+08     0.1050000000E+02
         0.7370000000E+08     0.3712500000E+02
         0.7640000000E+08     0.3112500000E+02
         0.7900000000E+08     0.2812500000E+02
         0.8170000000E+08     0.2287500000E+02
         0.8440000000E+08     0.1762500000E+02
         0.8700000000E+08     0.1312500000E+02
         0.8960000000E+08     0.9750000000E+01
         0.9220000000E+08     0.8625000000E+01
         0.9490000000E+08     0.7125000000E+01
         0.9760000000E+08     0.7875000000E+01
         0.1000000000E+09     0.3675000000E+02
         0.1030000000E+09     0.2812500000E+02
         0.1050000000E+09     0.2362500000E+02
         0.1080000000E+09     0.2175000000E+02
         0.1110000000E+09     0.2025000000E+02
         0.1130000000E+09     0.1387500000E+02
         0.1160000000E+09     0.9375000000E+01
         0.1190000000E+09     0.8250000000E+01
         0.1210000000E+09     0.7875000000E+01
         0.1240000000E+09     0.7500000000E+01
         0.1260000000E+09     0.7125000000E+01
TABULAR INFLOWS WERE READ FOR SEGMENT      9
FROM FILE UNIT NUMBER     56

          TIMES                    INFLOWS
         0.0000000000E+00     0.1000000000E+03
         0.8640000000E+05     0.1000000000E+03
         0.1730000000E+06     0.1000000000E+03
         0.2590000000E+06     0.1000000000E+03
         0.3460000000E+06     0.1000000000E+03
         0.4320000000E+06     0.1000000000E+03
         0.5180000000E+06     0.1000000000E+03
         0.6050000000E+06     0.1000000000E+03
         0.6910000000E+06     0.1000000000E+03
         0.7780000000E+06     0.1000000000E+03
         0.8640000000E+06     0.1000000000E+03
         0.9500000000E+06     0.1000000000E+03
         0.1040000000E+07     0.1000000000E+03
         0.1120000000E+07     0.1000000000E+03
         0.1210000000E+07     0.1000000000E+03
         0.1300000000E+07     0.1000000000E+03
         0.1380000000E+07     0.1000000000E+03
         0.1470000000E+07     0.1000000000E+03
         0.1560000000E+07     0.1000000000E+03
         0.1640000000E+07     0.1000000000E+03
         0.1730000000E+07     0.1000000000E+03
         0.1810000000E+07     0.1000000000E+03
         0.1900000000E+07     0.1000000000E+03
         0.1990000000E+07     0.1000000000E+03
         0.2070000000E+07     0.1000000000E+03
         0.2160000000E+07     0.1000000000E+03
         0.2250000000E+07     0.1000000000E+03
         0.2330000000E+07     0.1000000000E+03
         0.2420000000E+07     0.1000000000E+03
         0.2510000000E+07     0.1000000000E+03
         0.2590000000E+07     0.1000000000E+03
         0.2680000000E+07     0.1000000000E+03
         0.2760000000E+07     0.1000000000E+03
         0.2850000000E+07     0.1000000000E+03
         0.2940000000E+07     0.1000000000E+03
         0.3020000000E+07     0.1000000000E+03
         0.3110000000E+07     0.1000000000E+03
         0.3200000000E+07     0.1000000000E+03
         0.3280000000E+07     0.1000000000E+03
         0.3370000000E+07     0.1000000000E+03
         0.3460000000E+07     0.1000000000E+03
         0.3540000000E+07     0.1000000000E+03
         0.3630000000E+07     0.1000000000E+03
         0.3720000000E+07     0.1000000000E+03
         0.3800000000E+07     0.1000000000E+03
         0.3890000000E+07     0.1000000000E+03
         0.3970000000E+07     0.1000000000E+03
         0.4060000000E+07     0.1000000000E+03
         0.4150000000E+07     0.1000000000E+03
         0.4230000000E+07     0.1000000000E+03
         0.4320000000E+07     0.1000000000E+03
         0.4410000000E+07     0.1000000000E+03
         0.4490000000E+07     0.1000000000E+03
         0.4580000000E+07     0.1000000000E+03
         0.4670000000E+07     0.1000000000E+03
         0.4750000000E+07     0.1000000000E+03
         0.4840000000E+07     0.1000000000E+03
         0.4920000000E+07     0.1000000000E+03
         0.5010000000E+07     0.1000000000E+03
         0.5100000000E+07     0.1000000000E+03
         0.5180000000E+07     0.1000000000E+03
         0.5270000000E+07     0.1000000000E+03
         0.5360000000E+07     0.1000000000E+03
         0.5440000000E+07     0.1000000000E+03
         0.5530000000E+07     0.1000000000E+03
         0.5620000000E+07     0.1000000000E+03
         0.5700000000E+07     0.1000000000E+03
         0.5790000000E+07     0.1000000000E+03
         0.5880000000E+07     0.1000000000E+03
         0.5960000000E+07     0.1000000000E+03
         0.6050000000E+07     0.1000000000E+03
         0.6130000000E+07     0.1000000000E+03
         0.6220000000E+07     0.1000000000E+03
         0.6310000000E+07     0.1000000000E+03
         0.6390000000E+07     0.1000000000E+03
         0.6480000000E+07     0.1000000000E+03
         0.6570000000E+07     0.1000000000E+03
         0.6650000000E+07     0.1000000000E+03
         0.6740000000E+07     0.1000000000E+03
         0.6830000000E+07     0.1000000000E+03
         0.6910000000E+07     0.1000000000E+03
         0.7000000000E+07     0.1000000000E+03
         0.7080000000E+07     0.1000000000E+03
         0.7170000000E+07     0.1000000000E+03
         0.7260000000E+07     0.1000000000E+03
         0.7340000000E+07     0.1000000000E+03
         0.7430000000E+07     0.1000000000E+03
         0.7520000000E+07     0.1000000000E+03
         0.7600000000E+07     0.1000000000E+03
         0.7690000000E+07     0.1000000000E+03
         0.7780000000E+07     0.1000000000E+03
         0.7860000000E+07     0.1000000000E+03
         0.7950000000E+07     0.1000000000E+03
         0.8040000000E+07     0.1000000000E+03
         0.8120000000E+07     0.1000000000E+03
         0.8210000000E+07     0.1000000000E+03
         0.8290000000E+07     0.1000000000E+03
         0.8380000000E+07     0.1000000000E+03
         0.8470000000E+07     0.1000000000E+03
         0.8550000000E+07     0.1000000000E+03
         0.8640000000E+07     0.1000000000E+03
         0.8730000000E+07     0.1000000000E+03
         0.8810000000E+07     0.1000000000E+03
         0.8900000000E+07     0.1000000000E+03
         0.8990000000E+07     0.1000000000E+03
         0.9070000000E+07     0.1000000000E+03
         0.9160000000E+07     0.1000000000E+03
         0.9240000000E+07     0.1000000000E+03
         0.9330000000E+07     0.1000000000E+03
         0.9420000000E+07     0.1000000000E+03
         0.9500000000E+07     0.1000000000E+03
         0.9590000000E+07     0.1000000000E+03
         0.9680000000E+07     0.1000000000E+03
         0.9760000000E+07     0.1000000000E+03
         0.9850000000E+07     0.1000000000E+03
         0.9940000000E+07     0.1000000000E+03
         0.1000000000E+08     0.1000000000E+03
         0.1010000000E+08     0.1000000000E+03
         0.1020000000E+08     0.1000000000E+03
         0.1030000000E+08     0.1000000000E+03
         0.1040000000E+08     0.1000000000E+03
         0.1050000000E+08     0.1000000000E+03
         0.1050000000E+08     0.1000000000E+03
         0.1060000000E+08     0.1000000000E+03
         0.1070000000E+08     0.1000000000E+03
         0.1080000000E+08     0.1000000000E+03
         0.1090000000E+08     0.1000000000E+03
         0.1100000000E+08     0.1000000000E+03
         0.1110000000E+08     0.1000000000E+03
         0.1110000000E+08     0.1000000000E+03
         0.1120000000E+08     0.1000000000E+03
         0.1130000000E+08     0.1000000000E+03
         0.1140000000E+08     0.1000000000E+03
         0.1150000000E+08     0.1000000000E+03
         0.1160000000E+08     0.1000000000E+03
         0.1170000000E+08     0.1000000000E+03
         0.1180000000E+08     0.1000000000E+03
         0.1180000000E+08     0.1000000000E+03
         0.1190000000E+08     0.1000000000E+03
         0.1200000000E+08     0.1000000000E+03
         0.1210000000E+08     0.1000000000E+03
         0.1220000000E+08     0.1000000000E+03
         0.1230000000E+08     0.1000000000E+03
         0.1240000000E+08     0.1000000000E+03
         0.1240000000E+08     0.1000000000E+03
         0.1250000000E+08     0.1000000000E+03
         0.1260000000E+08     0.1000000000E+03
         0.1270000000E+08     0.1000000000E+03
         0.1280000000E+08     0.1000000000E+03
         0.1290000000E+08     0.1000000000E+03
         0.1300000000E+08     0.1000000000E+03
         0.1300000000E+08     0.1000000000E+03
         0.1310000000E+08     0.1000000000E+03
         0.1320000000E+08     0.1000000000E+03
         0.1330000000E+08     0.1000000000E+03
         0.1340000000E+08     0.1000000000E+03
         0.1350000000E+08     0.1000000000E+03
         0.1360000000E+08     0.1000000000E+03
         0.1370000000E+08     0.1000000000E+03
         0.1370000000E+08     0.1000000000E+03
         0.1380000000E+08     0.1000000000E+03
         0.1390000000E+08     0.1000000000E+03
         0.1400000000E+08     0.1000000000E+03
         0.1410000000E+08     0.1000000000E+03
         0.1420000000E+08     0.1000000000E+03
         0.1430000000E+08     0.1000000000E+03
         0.1430000000E+08     0.1000000000E+03
         0.1440000000E+08     0.1000000000E+03
         0.1450000000E+08     0.1000000000E+03
         0.1460000000E+08     0.1000000000E+03
         0.1470000000E+08     0.1000000000E+03
         0.1480000000E+08     0.1000000000E+03
         0.1490000000E+08     0.1000000000E+03
         0.1490000000E+08     0.1000000000E+03
         0.1500000000E+08     0.1000000000E+03
         0.1510000000E+08     0.1000000000E+03
         0.1520000000E+08     0.1000000000E+03
         0.1530000000E+08     0.1000000000E+03
         0.1540000000E+08     0.1000000000E+03
         0.1550000000E+08     0.1000000000E+03
         0.1560000000E+08     0.1000000000E+03
         0.1560000000E+08     0.1000000000E+03
         0.1570000000E+08     0.1000000000E+03
         0.1580000000E+08     0.1000000000E+03
         0.1590000000E+08     0.1000000000E+03
         0.1600000000E+08     0.1000000000E+03
         0.1610000000E+08     0.1000000000E+03
         0.1620000000E+08     0.1000000000E+03
         0.1620000000E+08     0.1000000000E+03
         0.1630000000E+08     0.1000000000E+03
         0.1640000000E+08     0.1000000000E+03
         0.1650000000E+08     0.1000000000E+03
         0.1660000000E+08     0.1000000000E+03
         0.1670000000E+08     0.1000000000E+03
         0.1680000000E+08     0.1000000000E+03
         0.1680000000E+08     0.1000000000E+03
         0.1690000000E+08     0.1000000000E+03
         0.1700000000E+08     0.1000000000E+03
         0.1710000000E+08     0.1000000000E+03
         0.1720000000E+08     0.1000000000E+03
         0.1730000000E+08     0.1000000000E+03
         0.1740000000E+08     0.1000000000E+03
         0.1750000000E+08     0.1000000000E+03
         0.1750000000E+08     0.1000000000E+03
         0.1760000000E+08     0.1000000000E+03
         0.1770000000E+08     0.1000000000E+03
         0.1780000000E+08     0.1000000000E+03
         0.1790000000E+08     0.1000000000E+03
         0.1800000000E+08     0.1000000000E+03
         0.1810000000E+08     0.1000000000E+03
         0.1810000000E+08     0.1000000000E+03
         0.1820000000E+08     0.1000000000E+03
         0.1830000000E+08     0.1000000000E+03
         0.1840000000E+08     0.1000000000E+03
         0.1850000000E+08     0.1000000000E+03
         0.1860000000E+08     0.1000000000E+03
         0.1870000000E+08     0.1000000000E+03
         0.1870000000E+08     0.1000000000E+03
         0.1880000000E+08     0.1000000000E+03
         0.1890000000E+08     0.1000000000E+03
         0.1900000000E+08     0.1000000000E+03
         0.1910000000E+08     0.1000000000E+03
         0.1920000000E+08     0.1000000000E+03
         0.1930000000E+08     0.1000000000E+03
         0.1940000000E+08     0.1000000000E+03
         0.1940000000E+08     0.1000000000E+03
         0.1950000000E+08     0.1000000000E+03
         0.1960000000E+08     0.1000000000E+03
         0.1970000000E+08     0.1000000000E+03
         0.1980000000E+08     0.1000000000E+03
         0.1990000000E+08     0.1000000000E+03
         0.2000000000E+08     0.1000000000E+03
         0.2000000000E+08     0.1000000000E+03
         0.2010000000E+08     0.1000000000E+03
         0.2020000000E+08     0.1000000000E+03
         0.2030000000E+08     0.1000000000E+03
         0.2040000000E+08     0.1000000000E+03
         0.2050000000E+08     0.1000000000E+03
         0.2060000000E+08     0.1000000000E+03
         0.2070000000E+08     0.1000000000E+03
         0.2070000000E+08     0.1000000000E+03
         0.2080000000E+08     0.1000000000E+03
         0.2090000000E+08     0.1000000000E+03
         0.2100000000E+08     0.1000000000E+03
         0.2110000000E+08     0.1000000000E+03
         0.2120000000E+08     0.1000000000E+03
         0.2130000000E+08     0.1000000000E+03
         0.2130000000E+08     0.1000000000E+03
         0.2140000000E+08     0.1000000000E+03
         0.2150000000E+08     0.1000000000E+03
         0.2160000000E+08     0.1000000000E+03
         0.2170000000E+08     0.1000000000E+03
         0.2180000000E+08     0.1000000000E+03
         0.2190000000E+08     0.1000000000E+03
         0.2190000000E+08     0.1000000000E+03
         0.2200000000E+08     0.1000000000E+03
         0.2210000000E+08     0.1000000000E+03
         0.2220000000E+08     0.1000000000E+03
         0.2230000000E+08     0.1000000000E+03
         0.2240000000E+08     0.1000000000E+03
         0.2250000000E+08     0.1000000000E+03
         0.2260000000E+08     0.1000000000E+03
         0.2260000000E+08     0.1000000000E+03
         0.2270000000E+08     0.1000000000E+03
         0.2280000000E+08     0.1000000000E+03
         0.2290000000E+08     0.1000000000E+03
         0.2300000000E+08     0.1000000000E+03
         0.2310000000E+08     0.1000000000E+03
         0.2320000000E+08     0.1000000000E+03
         0.2320000000E+08     0.1000000000E+03
         0.2330000000E+08     0.1000000000E+03
         0.2340000000E+08     0.1000000000E+03
         0.2350000000E+08     0.1000000000E+03
         0.2360000000E+08     0.1000000000E+03
         0.2370000000E+08     0.1000000000E+03
         0.2380000000E+08     0.1000000000E+03
         0.2380000000E+08     0.1000000000E+03
         0.2390000000E+08     0.1000000000E+03
         0.2400000000E+08     0.1000000000E+03
         0.2410000000E+08     0.1000000000E+03
         0.2420000000E+08     0.1000000000E+03
         0.2430000000E+08     0.1000000000E+03
         0.2440000000E+08     0.1000000000E+03
         0.2450000000E+08     0.1000000000E+03
         0.2450000000E+08     0.1000000000E+03
         0.2460000000E+08     0.1000000000E+03
         0.2470000000E+08     0.1000000000E+03
         0.2480000000E+08     0.1000000000E+03
         0.2490000000E+08     0.1000000000E+03
         0.2500000000E+08     0.1000000000E+03
         0.2510000000E+08     0.1000000000E+03
         0.2510000000E+08     0.1000000000E+03
         0.2520000000E+08     0.1000000000E+03
         0.2530000000E+08     0.1000000000E+03
         0.2540000000E+08     0.1000000000E+03
         0.2550000000E+08     0.1000000000E+03
         0.2560000000E+08     0.1000000000E+03
         0.2570000000E+08     0.1000000000E+03
         0.2570000000E+08     0.1000000000E+03
         0.2580000000E+08     0.1000000000E+03
         0.2590000000E+08     0.1000000000E+03
         0.2600000000E+08     0.1000000000E+03
         0.2610000000E+08     0.1000000000E+03
         0.2620000000E+08     0.1000000000E+03
         0.2630000000E+08     0.1000000000E+03
         0.2640000000E+08     0.1000000000E+03
         0.2640000000E+08     0.1000000000E+03
         0.2650000000E+08     0.1000000000E+03
         0.2660000000E+08     0.1000000000E+03
         0.2670000000E+08     0.1000000000E+03
         0.2680000000E+08     0.1000000000E+03
         0.2690000000E+08     0.1000000000E+03
         0.2700000000E+08     0.1000000000E+03
         0.2700000000E+08     0.1000000000E+03
         0.2710000000E+08     0.1000000000E+03
         0.2720000000E+08     0.1000000000E+03
         0.2730000000E+08     0.1000000000E+03
         0.2740000000E+08     0.1000000000E+03
         0.2750000000E+08     0.1000000000E+03
         0.2760000000E+08     0.1000000000E+03
         0.2760000000E+08     0.1000000000E+03
         0.2770000000E+08     0.1000000000E+03
         0.2780000000E+08     0.1000000000E+03
         0.2790000000E+08     0.1000000000E+03
         0.2800000000E+08     0.1000000000E+03
         0.2810000000E+08     0.1000000000E+03
         0.2820000000E+08     0.1000000000E+03
         0.2830000000E+08     0.1000000000E+03
         0.2830000000E+08     0.1000000000E+03
         0.2840000000E+08     0.1000000000E+03
         0.2850000000E+08     0.1000000000E+03
         0.2860000000E+08     0.1000000000E+03
         0.2870000000E+08     0.1000000000E+03
         0.2880000000E+08     0.1000000000E+03
         0.2890000000E+08     0.1000000000E+03
         0.2890000000E+08     0.1000000000E+03
         0.2900000000E+08     0.1000000000E+03
         0.2910000000E+08     0.1000000000E+03
         0.2920000000E+08     0.1000000000E+03
         0.2930000000E+08     0.1000000000E+03
         0.2940000000E+08     0.1000000000E+03
         0.2950000000E+08     0.1000000000E+03
         0.2950000000E+08     0.1000000000E+03
         0.2960000000E+08     0.1000000000E+03
         0.2970000000E+08     0.1000000000E+03
         0.2980000000E+08     0.1000000000E+03
         0.2990000000E+08     0.1000000000E+03
         0.3000000000E+08     0.1000000000E+03
         0.3010000000E+08     0.1000000000E+03
         0.3020000000E+08     0.1000000000E+03
         0.3020000000E+08     0.1000000000E+03
         0.3030000000E+08     0.1000000000E+03
         0.3040000000E+08     0.1000000000E+03
         0.3050000000E+08     0.1000000000E+03
         0.3060000000E+08     0.1000000000E+03
         0.3070000000E+08     0.1000000000E+03
         0.3080000000E+08     0.1000000000E+03
         0.3080000000E+08     0.1000000000E+03
         0.3090000000E+08     0.1000000000E+03
         0.3100000000E+08     0.1000000000E+03
         0.3110000000E+08     0.1000000000E+03
         0.3120000000E+08     0.1000000000E+03
         0.3130000000E+08     0.1000000000E+03
         0.3140000000E+08     0.1000000000E+03
         0.3150000000E+08     0.1000000000E+03
         0.3150000000E+08     0.1000000000E+03
         0.3160000000E+08     0.1000000000E+03
         0.3170000000E+08     0.1000000000E+03
         0.3180000000E+08     0.1000000000E+03
         0.3190000000E+08     0.1000000000E+03
         0.3200000000E+08     0.1000000000E+03
         0.3210000000E+08     0.1000000000E+03
         0.3210000000E+08     0.1000000000E+03
         0.3220000000E+08     0.1000000000E+03
         0.3230000000E+08     0.1000000000E+03
         0.3240000000E+08     0.1000000000E+03
         0.3250000000E+08     0.1000000000E+03
         0.3260000000E+08     0.1000000000E+03
         0.3270000000E+08     0.1000000000E+03
         0.3270000000E+08     0.1000000000E+03
         0.3280000000E+08     0.1000000000E+03
         0.3290000000E+08     0.1000000000E+03
         0.3300000000E+08     0.1000000000E+03
         0.3310000000E+08     0.1000000000E+03
         0.3320000000E+08     0.1000000000E+03
         0.3330000000E+08     0.1000000000E+03
         0.3340000000E+08     0.1000000000E+03
         0.3340000000E+08     0.1000000000E+03
         0.3350000000E+08     0.1000000000E+03
         0.3360000000E+08     0.1000000000E+03
         0.3370000000E+08     0.1000000000E+03
         0.3380000000E+08     0.1000000000E+03
         0.3390000000E+08     0.1000000000E+03
         0.3400000000E+08     0.1000000000E+03
         0.3400000000E+08     0.1000000000E+03
         0.3410000000E+08     0.1000000000E+03
         0.3420000000E+08     0.1000000000E+03
         0.3430000000E+08     0.1000000000E+03
         0.3440000000E+08     0.1000000000E+03
         0.3450000000E+08     0.1000000000E+03
         0.3460000000E+08     0.1000000000E+03
         0.3460000000E+08     0.1000000000E+03
         0.3470000000E+08     0.1000000000E+03
         0.3480000000E+08     0.1000000000E+03
         0.3490000000E+08     0.1000000000E+03
         0.3500000000E+08     0.1000000000E+03
         0.3510000000E+08     0.1000000000E+03
         0.3520000000E+08     0.1000000000E+03
         0.3530000000E+08     0.1000000000E+03
         0.3530000000E+08     0.1000000000E+03
         0.3540000000E+08     0.1000000000E+03
         0.3550000000E+08     0.1000000000E+03
         0.3560000000E+08     0.1000000000E+03
         0.3570000000E+08     0.1000000000E+03
         0.3580000000E+08     0.1000000000E+03
         0.3590000000E+08     0.1000000000E+03
         0.3590000000E+08     0.1000000000E+03
         0.3600000000E+08     0.1000000000E+03
         0.3610000000E+08     0.1000000000E+03
         0.3620000000E+08     0.1000000000E+03
         0.3630000000E+08     0.1000000000E+03
         0.3640000000E+08     0.1000000000E+03
         0.3650000000E+08     0.1000000000E+03
         0.3650000000E+08     0.1000000000E+03
         0.3660000000E+08     0.1000000000E+03
         0.3670000000E+08     0.1000000000E+03
         0.3680000000E+08     0.1000000000E+03
         0.3690000000E+08     0.1000000000E+03
         0.3700000000E+08     0.1000000000E+03
         0.3710000000E+08     0.1000000000E+03
         0.3720000000E+08     0.1000000000E+03
         0.3720000000E+08     0.1000000000E+03
         0.3730000000E+08     0.1000000000E+03
         0.3740000000E+08     0.1000000000E+03
         0.3750000000E+08     0.1000000000E+03
         0.3760000000E+08     0.1000000000E+03
         0.3770000000E+08     0.1000000000E+03
         0.3780000000E+08     0.1000000000E+03
         0.3780000000E+08     0.1000000000E+03
         0.3790000000E+08     0.1000000000E+03
         0.3800000000E+08     0.1000000000E+03
         0.3810000000E+08     0.1000000000E+03
         0.3820000000E+08     0.1000000000E+03
         0.3830000000E+08     0.1000000000E+03
         0.3840000000E+08     0.1000000000E+03
         0.3840000000E+08     0.1000000000E+03
         0.3850000000E+08     0.1000000000E+03
         0.3860000000E+08     0.1000000000E+03
         0.3870000000E+08     0.1000000000E+03
         0.3880000000E+08     0.1000000000E+03
         0.3890000000E+08     0.1000000000E+03
         0.3900000000E+08     0.1000000000E+03
         0.3910000000E+08     0.1000000000E+03
         0.3910000000E+08     0.1000000000E+03
         0.3920000000E+08     0.1000000000E+03
         0.3930000000E+08     0.1000000000E+03
         0.3940000000E+08     0.1000000000E+03
         0.3950000000E+08     0.1000000000E+03
         0.3960000000E+08     0.1000000000E+03
         0.3970000000E+08     0.1000000000E+03
         0.3970000000E+08     0.1000000000E+03
         0.3980000000E+08     0.1000000000E+03
         0.3990000000E+08     0.1000000000E+03
         0.4000000000E+08     0.1000000000E+03
         0.4010000000E+08     0.1000000000E+03
         0.4020000000E+08     0.1000000000E+03
         0.4030000000E+08     0.1000000000E+03
         0.4030000000E+08     0.1000000000E+03
         0.4040000000E+08     0.1000000000E+03
         0.4050000000E+08     0.1000000000E+03
         0.4060000000E+08     0.1000000000E+03
         0.4070000000E+08     0.1000000000E+03
         0.4080000000E+08     0.1000000000E+03
         0.4090000000E+08     0.1000000000E+03
         0.4100000000E+08     0.1000000000E+03
         0.4100000000E+08     0.1000000000E+03
         0.4110000000E+08     0.1000000000E+03
         0.4120000000E+08     0.1000000000E+03
         0.4130000000E+08     0.1000000000E+03
         0.4140000000E+08     0.1000000000E+03
         0.4150000000E+08     0.1000000000E+03
         0.4160000000E+08     0.1000000000E+03
         0.4160000000E+08     0.1000000000E+03
         0.4170000000E+08     0.1000000000E+03
         0.4180000000E+08     0.1000000000E+03
         0.4190000000E+08     0.1000000000E+03
         0.4200000000E+08     0.1000000000E+03
         0.4210000000E+08     0.1000000000E+03
         0.4220000000E+08     0.1000000000E+03
         0.4230000000E+08     0.1000000000E+03
         0.4230000000E+08     0.1000000000E+03
         0.4240000000E+08     0.1000000000E+03
         0.4250000000E+08     0.1000000000E+03
         0.4260000000E+08     0.1000000000E+03
         0.4270000000E+08     0.1000000000E+03
         0.4280000000E+08     0.1000000000E+03
         0.4290000000E+08     0.1000000000E+03
         0.4290000000E+08     0.1000000000E+03
         0.4300000000E+08     0.1000000000E+03
         0.4310000000E+08     0.1000000000E+03
         0.4320000000E+08     0.1000000000E+03
         0.4330000000E+08     0.1000000000E+03
         0.4340000000E+08     0.1000000000E+03
         0.4350000000E+08     0.1000000000E+03
         0.4350000000E+08     0.1000000000E+03
         0.4360000000E+08     0.1000000000E+03
         0.4370000000E+08     0.1000000000E+03
         0.4380000000E+08     0.1000000000E+03
         0.4390000000E+08     0.1000000000E+03
         0.4400000000E+08     0.1000000000E+03
         0.4410000000E+08     0.1000000000E+03
         0.4420000000E+08     0.1000000000E+03
         0.4420000000E+08     0.1000000000E+03
         0.4430000000E+08     0.1000000000E+03
         0.4440000000E+08     0.1000000000E+03
         0.4450000000E+08     0.1000000000E+03
         0.4460000000E+08     0.1000000000E+03
         0.4470000000E+08     0.1000000000E+03
         0.4480000000E+08     0.1000000000E+03
         0.4480000000E+08     0.1000000000E+03
         0.4490000000E+08     0.1000000000E+03
         0.4500000000E+08     0.1000000000E+03
         0.4510000000E+08     0.1000000000E+03
         0.4520000000E+08     0.1000000000E+03
         0.4530000000E+08     0.1000000000E+03
         0.4540000000E+08     0.1000000000E+03
         0.4540000000E+08     0.1000000000E+03
         0.4550000000E+08     0.1000000000E+03
         0.4560000000E+08     0.1000000000E+03
         0.4570000000E+08     0.1000000000E+03
         0.4580000000E+08     0.1000000000E+03
         0.4590000000E+08     0.1000000000E+03
         0.4600000000E+08     0.1000000000E+03
         0.4610000000E+08     0.1000000000E+03
         0.4610000000E+08     0.1000000000E+03
         0.4620000000E+08     0.1000000000E+03
         0.4630000000E+08     0.1000000000E+03
         0.4640000000E+08     0.1000000000E+03
         0.4650000000E+08     0.1000000000E+03
         0.4660000000E+08     0.1000000000E+03
         0.4670000000E+08     0.1000000000E+03
         0.4670000000E+08     0.1000000000E+03
         0.4680000000E+08     0.1000000000E+03
         0.4690000000E+08     0.1000000000E+03
         0.4700000000E+08     0.1000000000E+03
         0.4710000000E+08     0.1000000000E+03
         0.4720000000E+08     0.1000000000E+03
         0.4730000000E+08     0.1000000000E+03
         0.4730000000E+08     0.1000000000E+03
         0.4740000000E+08     0.1000000000E+03
         0.4750000000E+08     0.1000000000E+03
         0.4760000000E+08     0.1000000000E+03
         0.4770000000E+08     0.1000000000E+03
         0.4780000000E+08     0.1000000000E+03
         0.4790000000E+08     0.1000000000E+03
         0.4800000000E+08     0.1000000000E+03
         0.4800000000E+08     0.1000000000E+03
         0.4810000000E+08     0.1000000000E+03
         0.4820000000E+08     0.1000000000E+03
         0.4830000000E+08     0.1000000000E+03
         0.4840000000E+08     0.1000000000E+03
         0.4850000000E+08     0.1000000000E+03
         0.4860000000E+08     0.1000000000E+03
         0.4860000000E+08     0.1000000000E+03
         0.4870000000E+08     0.1000000000E+03
         0.4880000000E+08     0.1000000000E+03
         0.4890000000E+08     0.1000000000E+03
         0.4900000000E+08     0.1000000000E+03
         0.4910000000E+08     0.1000000000E+03
         0.4920000000E+08     0.1000000000E+03
         0.4920000000E+08     0.1000000000E+03
         0.4930000000E+08     0.1000000000E+03
         0.4940000000E+08     0.1000000000E+03
         0.4950000000E+08     0.1000000000E+03
         0.4960000000E+08     0.1000000000E+03
         0.4970000000E+08     0.1000000000E+03
         0.4980000000E+08     0.1000000000E+03
         0.4990000000E+08     0.1000000000E+03
         0.4990000000E+08     0.1000000000E+03
         0.5000000000E+08     0.1000000000E+03
         0.5010000000E+08     0.1000000000E+03
         0.5020000000E+08     0.1000000000E+03
         0.5030000000E+08     0.1000000000E+03
         0.5040000000E+08     0.1000000000E+03
         0.5050000000E+08     0.1000000000E+03
         0.5050000000E+08     0.1000000000E+03
         0.5060000000E+08     0.1000000000E+03
         0.5070000000E+08     0.1000000000E+03
         0.5080000000E+08     0.1000000000E+03
         0.5090000000E+08     0.1000000000E+03
         0.5100000000E+08     0.1000000000E+03
         0.5110000000E+08     0.1000000000E+03
         0.5110000000E+08     0.1000000000E+03
         0.5120000000E+08     0.1000000000E+03
         0.5130000000E+08     0.1000000000E+03
         0.5140000000E+08     0.1000000000E+03
         0.5150000000E+08     0.1000000000E+03
         0.5160000000E+08     0.1000000000E+03
         0.5170000000E+08     0.1000000000E+03
         0.5180000000E+08     0.1000000000E+03
         0.5180000000E+08     0.1000000000E+03
         0.5190000000E+08     0.1000000000E+03
         0.5200000000E+08     0.1000000000E+03
         0.5210000000E+08     0.1000000000E+03
         0.5220000000E+08     0.1000000000E+03
         0.5230000000E+08     0.1000000000E+03
         0.5240000000E+08     0.1000000000E+03
         0.5240000000E+08     0.1000000000E+03
         0.5250000000E+08     0.1000000000E+03
         0.5260000000E+08     0.1000000000E+03
         0.5270000000E+08     0.1000000000E+03
         0.5280000000E+08     0.1000000000E+03
         0.5290000000E+08     0.1000000000E+03
         0.5300000000E+08     0.1000000000E+03
         0.5310000000E+08     0.1000000000E+03
         0.5310000000E+08     0.1000000000E+03
         0.5320000000E+08     0.1000000000E+03
         0.5330000000E+08     0.1000000000E+03
         0.5340000000E+08     0.1000000000E+03
         0.5350000000E+08     0.1000000000E+03
         0.5360000000E+08     0.1000000000E+03
         0.5370000000E+08     0.1000000000E+03
         0.5370000000E+08     0.1000000000E+03
         0.5380000000E+08     0.1000000000E+03
         0.5390000000E+08     0.1000000000E+03
         0.5400000000E+08     0.1000000000E+03
         0.5410000000E+08     0.1000000000E+03
         0.5420000000E+08     0.1000000000E+03
         0.5430000000E+08     0.1000000000E+03
         0.5430000000E+08     0.1000000000E+03
         0.5440000000E+08     0.1000000000E+03
         0.5450000000E+08     0.1000000000E+03
         0.5460000000E+08     0.1000000000E+03
         0.5470000000E+08     0.1000000000E+03
         0.5480000000E+08     0.1000000000E+03
         0.5490000000E+08     0.1000000000E+03
         0.5500000000E+08     0.1000000000E+03
         0.5500000000E+08     0.1000000000E+03
         0.5510000000E+08     0.1000000000E+03
         0.5520000000E+08     0.1000000000E+03
         0.5530000000E+08     0.1000000000E+03
         0.5540000000E+08     0.1000000000E+03
         0.5550000000E+08     0.1000000000E+03
         0.5560000000E+08     0.1000000000E+03
         0.5560000000E+08     0.1000000000E+03
         0.5570000000E+08     0.1000000000E+03
         0.5580000000E+08     0.1000000000E+03
         0.5590000000E+08     0.1000000000E+03
         0.5600000000E+08     0.1000000000E+03
         0.5610000000E+08     0.1000000000E+03
         0.5620000000E+08     0.1000000000E+03
         0.5620000000E+08     0.1000000000E+03
         0.5630000000E+08     0.1000000000E+03
         0.5640000000E+08     0.1000000000E+03
         0.5650000000E+08     0.1000000000E+03
         0.5660000000E+08     0.1000000000E+03
         0.5670000000E+08     0.1000000000E+03
         0.5680000000E+08     0.1000000000E+03
         0.5690000000E+08     0.1000000000E+03
         0.5690000000E+08     0.1000000000E+03
         0.5700000000E+08     0.1000000000E+03
         0.5710000000E+08     0.1000000000E+03
         0.5720000000E+08     0.1000000000E+03
         0.5730000000E+08     0.1000000000E+03
         0.5740000000E+08     0.1000000000E+03
         0.5750000000E+08     0.1000000000E+03
         0.5750000000E+08     0.1000000000E+03
         0.5760000000E+08     0.1000000000E+03
         0.5770000000E+08     0.1000000000E+03
         0.5780000000E+08     0.1000000000E+03
         0.5790000000E+08     0.1000000000E+03
         0.5800000000E+08     0.1000000000E+03
         0.5810000000E+08     0.1000000000E+03
         0.5810000000E+08     0.1000000000E+03
         0.5820000000E+08     0.1000000000E+03
         0.5830000000E+08     0.1000000000E+03
         0.5840000000E+08     0.1000000000E+03
         0.5850000000E+08     0.1000000000E+03
         0.5860000000E+08     0.1000000000E+03
         0.5870000000E+08     0.1000000000E+03
         0.5880000000E+08     0.1000000000E+03
         0.5880000000E+08     0.1000000000E+03
         0.5890000000E+08     0.1000000000E+03
         0.5900000000E+08     0.1000000000E+03
         0.5910000000E+08     0.1000000000E+03
         0.5920000000E+08     0.1000000000E+03
         0.5930000000E+08     0.1000000000E+03
         0.5940000000E+08     0.1000000000E+03
         0.5940000000E+08     0.1000000000E+03
         0.5950000000E+08     0.1000000000E+03
         0.5960000000E+08     0.1000000000E+03
         0.5970000000E+08     0.1000000000E+03
         0.5980000000E+08     0.1000000000E+03
         0.5990000000E+08     0.1000000000E+03
         0.6000000000E+08     0.1000000000E+03
         0.6000000000E+08     0.1000000000E+03
         0.6010000000E+08     0.1000000000E+03
         0.6020000000E+08     0.1000000000E+03
         0.6030000000E+08     0.1000000000E+03
         0.6040000000E+08     0.1000000000E+03
         0.6050000000E+08     0.1000000000E+03
         0.6060000000E+08     0.1000000000E+03
         0.6070000000E+08     0.1000000000E+03
         0.6070000000E+08     0.1000000000E+03
         0.6080000000E+08     0.1000000000E+03
         0.6090000000E+08     0.1000000000E+03
         0.6100000000E+08     0.1000000000E+03
         0.6110000000E+08     0.1000000000E+03
         0.6120000000E+08     0.1000000000E+03
         0.6130000000E+08     0.1000000000E+03
         0.6130000000E+08     0.1000000000E+03
         0.6140000000E+08     0.1000000000E+03
         0.6150000000E+08     0.1000000000E+03
         0.6160000000E+08     0.1000000000E+03
         0.6170000000E+08     0.1000000000E+03
         0.6180000000E+08     0.1000000000E+03
         0.6190000000E+08     0.1000000000E+03
         0.6190000000E+08     0.1000000000E+03
         0.6200000000E+08     0.1000000000E+03
         0.6210000000E+08     0.1000000000E+03
         0.6220000000E+08     0.1000000000E+03
         0.6230000000E+08     0.1000000000E+03
         0.6240000000E+08     0.1000000000E+03
         0.6250000000E+08     0.1000000000E+03
         0.6260000000E+08     0.1000000000E+03
         0.6260000000E+08     0.1000000000E+03
         0.6270000000E+08     0.1000000000E+03
         0.6280000000E+08     0.1000000000E+03
         0.6290000000E+08     0.1000000000E+03
         0.6300000000E+08     0.1000000000E+03
         0.6310000000E+08     0.1000000000E+03
         0.6320000000E+08     0.1000000000E+03
         0.6320000000E+08     0.1000000000E+03
         0.6330000000E+08     0.1000000000E+03
         0.6340000000E+08     0.1000000000E+03
         0.6350000000E+08     0.1000000000E+03
         0.6360000000E+08     0.1000000000E+03
         0.6370000000E+08     0.1000000000E+03
         0.6380000000E+08     0.1000000000E+03
         0.6390000000E+08     0.1000000000E+03
         0.6390000000E+08     0.1000000000E+03
         0.6400000000E+08     0.1000000000E+03
         0.6410000000E+08     0.1000000000E+03
         0.6420000000E+08     0.1000000000E+03
         0.6430000000E+08     0.1000000000E+03
         0.6440000000E+08     0.1000000000E+03
         0.6450000000E+08     0.1000000000E+03
         0.6450000000E+08     0.1000000000E+03
         0.6460000000E+08     0.1000000000E+03
         0.6470000000E+08     0.1000000000E+03
         0.6480000000E+08     0.1000000000E+03
         0.6490000000E+08     0.1000000000E+03
         0.6500000000E+08     0.1000000000E+03
         0.6510000000E+08     0.1000000000E+03
         0.6510000000E+08     0.1000000000E+03
         0.6520000000E+08     0.1000000000E+03
         0.6530000000E+08     0.1000000000E+03
         0.6540000000E+08     0.1000000000E+03
         0.6550000000E+08     0.1000000000E+03
         0.6560000000E+08     0.1000000000E+03
         0.6570000000E+08     0.1000000000E+03
         0.6580000000E+08     0.1000000000E+03
         0.6590000000E+08     0.1000000000E+03
         0.6600000000E+08     0.1000000000E+03
         0.6610000000E+08     0.1000000000E+03
         0.6610000000E+08     0.1000000000E+03
         0.6620000000E+08     0.1000000000E+03
         0.6630000000E+08     0.1000000000E+03
         0.6640000000E+08     0.1000000000E+03
         0.6650000000E+08     0.1000000000E+03
         0.6660000000E+08     0.1000000000E+03
         0.6670000000E+08     0.1000000000E+03
         0.6670000000E+08     0.1000000000E+03
         0.6680000000E+08     0.1000000000E+03
         0.6690000000E+08     0.1000000000E+03
         0.6700000000E+08     0.1000000000E+03
         0.6710000000E+08     0.1000000000E+03
         0.6720000000E+08     0.1000000000E+03
         0.6730000000E+08     0.1000000000E+03
         0.6730000000E+08     0.1000000000E+03
         0.6740000000E+08     0.1000000000E+03
         0.6750000000E+08     0.1000000000E+03
         0.6760000000E+08     0.1000000000E+03
         0.6770000000E+08     0.1000000000E+03
         0.6780000000E+08     0.1000000000E+03
         0.6790000000E+08     0.1000000000E+03
         0.6800000000E+08     0.1000000000E+03
         0.6810000000E+08     0.1000000000E+03
         0.6820000000E+08     0.1000000000E+03
         0.6830000000E+08     0.1000000000E+03
         0.6830000000E+08     0.1000000000E+03
         0.6840000000E+08     0.1000000000E+03
         0.6850000000E+08     0.1000000000E+03
         0.6860000000E+08     0.1000000000E+03
         0.6870000000E+08     0.1000000000E+03
         0.6880000000E+08     0.1000000000E+03
         0.6890000000E+08     0.1000000000E+03
         0.6890000000E+08     0.1000000000E+03
         0.6900000000E+08     0.1000000000E+03
         0.6910000000E+08     0.1000000000E+03
         0.6920000000E+08     0.1000000000E+03
         0.6930000000E+08     0.1000000000E+03
         0.6940000000E+08     0.1000000000E+03
         0.6950000000E+08     0.1000000000E+03
         0.6950000000E+08     0.1000000000E+03
         0.6960000000E+08     0.1000000000E+03
         0.6970000000E+08     0.1000000000E+03
         0.6980000000E+08     0.1000000000E+03
         0.6990000000E+08     0.1000000000E+03
         0.7000000000E+08     0.1000000000E+03
         0.7010000000E+08     0.1000000000E+03
         0.7020000000E+08     0.1000000000E+03
         0.7030000000E+08     0.1000000000E+03
         0.7040000000E+08     0.1000000000E+03
         0.7050000000E+08     0.1000000000E+03
         0.7050000000E+08     0.1000000000E+03
         0.7060000000E+08     0.1000000000E+03
         0.7070000000E+08     0.1000000000E+03
         0.7080000000E+08     0.1000000000E+03
         0.7090000000E+08     0.1000000000E+03
         0.7100000000E+08     0.1000000000E+03
         0.7110000000E+08     0.1000000000E+03
         0.7110000000E+08     0.1000000000E+03
         0.7120000000E+08     0.1000000000E+03
         0.7130000000E+08     0.1000000000E+03
         0.7140000000E+08     0.1000000000E+03
         0.7150000000E+08     0.1000000000E+03
         0.7160000000E+08     0.1000000000E+03
         0.7170000000E+08     0.1000000000E+03
         0.7170000000E+08     0.1000000000E+03
         0.7180000000E+08     0.1000000000E+03
         0.7190000000E+08     0.1000000000E+03
         0.7200000000E+08     0.1000000000E+03
         0.7210000000E+08     0.1000000000E+03
         0.7220000000E+08     0.1000000000E+03
         0.7230000000E+08     0.1000000000E+03
         0.7240000000E+08     0.1000000000E+03
         0.7250000000E+08     0.1000000000E+03
         0.7260000000E+08     0.1000000000E+03
         0.7270000000E+08     0.1000000000E+03
         0.7270000000E+08     0.1000000000E+03
         0.7280000000E+08     0.1000000000E+03
         0.7290000000E+08     0.1000000000E+03
         0.7300000000E+08     0.1000000000E+03
         0.7310000000E+08     0.1000000000E+03
         0.7320000000E+08     0.1000000000E+03
         0.7330000000E+08     0.1000000000E+03
         0.7330000000E+08     0.1000000000E+03
         0.7340000000E+08     0.1000000000E+03
         0.7350000000E+08     0.1000000000E+03
         0.7360000000E+08     0.1000000000E+03
         0.7370000000E+08     0.1000000000E+03
         0.7380000000E+08     0.1000000000E+03
         0.7390000000E+08     0.1000000000E+03
         0.7390000000E+08     0.1000000000E+03
         0.7400000000E+08     0.1000000000E+03
         0.7410000000E+08     0.1000000000E+03
         0.7420000000E+08     0.1000000000E+03
         0.7430000000E+08     0.1000000000E+03
         0.7440000000E+08     0.1000000000E+03
         0.7450000000E+08     0.1000000000E+03
         0.7460000000E+08     0.1000000000E+03
         0.7470000000E+08     0.1000000000E+03
         0.7480000000E+08     0.1000000000E+03
         0.7490000000E+08     0.1000000000E+03
         0.7490000000E+08     0.1000000000E+03
         0.7500000000E+08     0.1000000000E+03
         0.7510000000E+08     0.1000000000E+03
         0.7520000000E+08     0.1000000000E+03
         0.7530000000E+08     0.1000000000E+03
         0.7540000000E+08     0.1000000000E+03
         0.7550000000E+08     0.1000000000E+03
         0.7550000000E+08     0.1000000000E+03
         0.7560000000E+08     0.1000000000E+03
         0.7570000000E+08     0.1000000000E+03
         0.7580000000E+08     0.1000000000E+03
         0.7590000000E+08     0.1000000000E+03
         0.7600000000E+08     0.1000000000E+03
         0.7610000000E+08     0.1000000000E+03
         0.7610000000E+08     0.1000000000E+03
         0.7620000000E+08     0.1000000000E+03
         0.7630000000E+08     0.1000000000E+03
         0.7640000000E+08     0.1000000000E+03
         0.7650000000E+08     0.1000000000E+03
         0.7660000000E+08     0.1000000000E+03
         0.7670000000E+08     0.1000000000E+03
         0.7680000000E+08     0.1000000000E+03
         0.7690000000E+08     0.1000000000E+03
         0.7700000000E+08     0.1000000000E+03
         0.7710000000E+08     0.1000000000E+03
         0.7710000000E+08     0.1000000000E+03
         0.7720000000E+08     0.1000000000E+03
         0.7730000000E+08     0.1000000000E+03
         0.7740000000E+08     0.1000000000E+03
         0.7750000000E+08     0.1000000000E+03
         0.7760000000E+08     0.1000000000E+03
         0.7770000000E+08     0.1000000000E+03
         0.7770000000E+08     0.1000000000E+03
         0.7780000000E+08     0.1000000000E+03
         0.7790000000E+08     0.1000000000E+03
         0.7800000000E+08     0.1000000000E+03
         0.7810000000E+08     0.1000000000E+03
         0.7820000000E+08     0.1000000000E+03
         0.7830000000E+08     0.1000000000E+03
         0.7830000000E+08     0.1000000000E+03
         0.7840000000E+08     0.1000000000E+03
         0.7850000000E+08     0.1000000000E+03
         0.7860000000E+08     0.1000000000E+03
         0.7870000000E+08     0.1000000000E+03
         0.7880000000E+08     0.1000000000E+03
         0.7890000000E+08     0.1000000000E+03
         0.7900000000E+08     0.1000000000E+03
         0.7910000000E+08     0.1000000000E+03
         0.7920000000E+08     0.1000000000E+03
         0.7930000000E+08     0.1000000000E+03
         0.7930000000E+08     0.1000000000E+03
         0.7940000000E+08     0.1000000000E+03
         0.7950000000E+08     0.1000000000E+03
         0.7960000000E+08     0.1000000000E+03
         0.7970000000E+08     0.1000000000E+03
         0.7980000000E+08     0.1000000000E+03
         0.7990000000E+08     0.1000000000E+03
         0.7990000000E+08     0.1000000000E+03
         0.8000000000E+08     0.1000000000E+03
         0.8010000000E+08     0.1000000000E+03
         0.8020000000E+08     0.1000000000E+03
         0.8030000000E+08     0.1000000000E+03
         0.8040000000E+08     0.1000000000E+03
         0.8050000000E+08     0.1000000000E+03
         0.8050000000E+08     0.1000000000E+03
         0.8060000000E+08     0.1000000000E+03
         0.8070000000E+08     0.1000000000E+03
         0.8080000000E+08     0.1000000000E+03
         0.8090000000E+08     0.1000000000E+03
         0.8100000000E+08     0.1000000000E+03
         0.8110000000E+08     0.1000000000E+03
         0.8120000000E+08     0.1000000000E+03
         0.8130000000E+08     0.1000000000E+03
         0.8140000000E+08     0.1000000000E+03
         0.8150000000E+08     0.1000000000E+03
         0.8150000000E+08     0.1000000000E+03
         0.8160000000E+08     0.1000000000E+03
         0.8170000000E+08     0.1000000000E+03
         0.8180000000E+08     0.1000000000E+03
         0.8190000000E+08     0.1000000000E+03
         0.8200000000E+08     0.1000000000E+03
         0.8210000000E+08     0.1000000000E+03
         0.8210000000E+08     0.1000000000E+03
         0.8220000000E+08     0.1000000000E+03
         0.8230000000E+08     0.1000000000E+03
         0.8240000000E+08     0.1000000000E+03
         0.8250000000E+08     0.1000000000E+03
         0.8260000000E+08     0.1000000000E+03
         0.8270000000E+08     0.1000000000E+03
         0.8270000000E+08     0.1000000000E+03
         0.8280000000E+08     0.1000000000E+03
         0.8290000000E+08     0.1000000000E+03
         0.8300000000E+08     0.1000000000E+03
         0.8310000000E+08     0.1000000000E+03
         0.8320000000E+08     0.1000000000E+03
         0.8330000000E+08     0.1000000000E+03
         0.8340000000E+08     0.1000000000E+03
         0.8350000000E+08     0.1000000000E+03
         0.8360000000E+08     0.1000000000E+03
         0.8370000000E+08     0.1000000000E+03
         0.8370000000E+08     0.1000000000E+03
         0.8380000000E+08     0.1000000000E+03
         0.8390000000E+08     0.1000000000E+03
         0.8400000000E+08     0.1000000000E+03
         0.8410000000E+08     0.1000000000E+03
         0.8420000000E+08     0.1000000000E+03
         0.8430000000E+08     0.1000000000E+03
         0.8430000000E+08     0.1000000000E+03
         0.8440000000E+08     0.1000000000E+03
         0.8450000000E+08     0.1000000000E+03
         0.8460000000E+08     0.1000000000E+03
         0.8470000000E+08     0.1000000000E+03
         0.8480000000E+08     0.1000000000E+03
         0.8490000000E+08     0.1000000000E+03
         0.8490000000E+08     0.1000000000E+03
         0.8500000000E+08     0.1000000000E+03
         0.8510000000E+08     0.1000000000E+03
         0.8520000000E+08     0.1000000000E+03
         0.8530000000E+08     0.1000000000E+03
         0.8540000000E+08     0.1000000000E+03
         0.8550000000E+08     0.1000000000E+03
         0.8560000000E+08     0.1000000000E+03
         0.8570000000E+08     0.1000000000E+03
         0.8580000000E+08     0.1000000000E+03
         0.8590000000E+08     0.1000000000E+03
         0.8590000000E+08     0.1000000000E+03
         0.8600000000E+08     0.1000000000E+03
         0.8610000000E+08     0.1000000000E+03
         0.8620000000E+08     0.1000000000E+03
         0.8630000000E+08     0.1000000000E+03
         0.8640000000E+08     0.1000000000E+03
         0.8650000000E+08     0.1000000000E+03
         0.8650000000E+08     0.1000000000E+03
         0.8660000000E+08     0.1000000000E+03
         0.8670000000E+08     0.1000000000E+03
         0.8680000000E+08     0.1000000000E+03
         0.8690000000E+08     0.1000000000E+03
         0.8700000000E+08     0.1000000000E+03
         0.8710000000E+08     0.1000000000E+03
         0.8710000000E+08     0.1000000000E+03
         0.8720000000E+08     0.1000000000E+03
         0.8730000000E+08     0.1000000000E+03
         0.8740000000E+08     0.1000000000E+03
         0.8750000000E+08     0.1000000000E+03
         0.8760000000E+08     0.1000000000E+03
         0.8770000000E+08     0.1000000000E+03
         0.8780000000E+08     0.1000000000E+03
         0.8790000000E+08     0.1000000000E+03
         0.8800000000E+08     0.1000000000E+03
         0.8810000000E+08     0.1000000000E+03
         0.8810000000E+08     0.1000000000E+03
         0.8820000000E+08     0.1000000000E+03
         0.8830000000E+08     0.1000000000E+03
         0.8840000000E+08     0.1000000000E+03
         0.8850000000E+08     0.1000000000E+03
         0.8860000000E+08     0.1000000000E+03
         0.8870000000E+08     0.1000000000E+03
         0.8870000000E+08     0.1000000000E+03
         0.8880000000E+08     0.1000000000E+03
         0.8890000000E+08     0.1000000000E+03
         0.8900000000E+08     0.1000000000E+03
         0.8910000000E+08     0.1000000000E+03
         0.8920000000E+08     0.1000000000E+03
         0.8930000000E+08     0.1000000000E+03
         0.8930000000E+08     0.1000000000E+03
         0.8940000000E+08     0.1000000000E+03
         0.8950000000E+08     0.1000000000E+03
         0.8960000000E+08     0.1000000000E+03
         0.8970000000E+08     0.1000000000E+03
         0.8980000000E+08     0.1000000000E+03
         0.8990000000E+08     0.1000000000E+03
         0.9000000000E+08     0.1000000000E+03
         0.9010000000E+08     0.1000000000E+03
         0.9020000000E+08     0.1000000000E+03
         0.9030000000E+08     0.1000000000E+03
         0.9030000000E+08     0.1000000000E+03
         0.9040000000E+08     0.1000000000E+03
         0.9050000000E+08     0.1000000000E+03
         0.9060000000E+08     0.1000000000E+03
         0.9070000000E+08     0.1000000000E+03
         0.9080000000E+08     0.1000000000E+03
         0.9090000000E+08     0.1000000000E+03
         0.9090000000E+08     0.1000000000E+03
         0.9100000000E+08     0.1000000000E+03
         0.9110000000E+08     0.1000000000E+03
         0.9120000000E+08     0.1000000000E+03
         0.9130000000E+08     0.1000000000E+03
         0.9140000000E+08     0.1000000000E+03
         0.9150000000E+08     0.1000000000E+03
         0.9150000000E+08     0.1000000000E+03
         0.9160000000E+08     0.1000000000E+03
         0.9170000000E+08     0.1000000000E+03
         0.9180000000E+08     0.1000000000E+03
         0.9190000000E+08     0.1000000000E+03
         0.9200000000E+08     0.1000000000E+03
         0.9210000000E+08     0.1000000000E+03
         0.9220000000E+08     0.1000000000E+03
         0.9230000000E+08     0.1000000000E+03
         0.9240000000E+08     0.1000000000E+03
         0.9250000000E+08     0.1000000000E+03
         0.9250000000E+08     0.1000000000E+03
         0.9260000000E+08     0.1000000000E+03
         0.9270000000E+08     0.1000000000E+03
         0.9280000000E+08     0.1000000000E+03
         0.9290000000E+08     0.1000000000E+03
         0.9300000000E+08     0.1000000000E+03
         0.9310000000E+08     0.1000000000E+03
         0.9310000000E+08     0.1000000000E+03
         0.9320000000E+08     0.1000000000E+03
         0.9330000000E+08     0.1000000000E+03
         0.9340000000E+08     0.1000000000E+03
         0.9350000000E+08     0.1000000000E+03
         0.9360000000E+08     0.1000000000E+03
         0.9370000000E+08     0.1000000000E+03
         0.9370000000E+08     0.1000000000E+03
         0.9380000000E+08     0.1000000000E+03
         0.9390000000E+08     0.1000000000E+03
         0.9400000000E+08     0.1000000000E+03
         0.9410000000E+08     0.1000000000E+03
         0.9420000000E+08     0.1000000000E+03
         0.9430000000E+08     0.1000000000E+03
         0.9440000000E+08     0.1000000000E+03
         0.9450000000E+08     0.1000000000E+03
         0.9460000000E+08     0.1000000000E+03
         0.9470000000E+08     0.1000000000E+03
         0.9470000000E+08     0.1000000000E+03
         0.9480000000E+08     0.1000000000E+03
         0.9490000000E+08     0.1000000000E+03
         0.9500000000E+08     0.1000000000E+03
         0.9510000000E+08     0.1000000000E+03
         0.9520000000E+08     0.1000000000E+03
         0.9530000000E+08     0.1000000000E+03
         0.9530000000E+08     0.1000000000E+03
         0.9540000000E+08     0.1000000000E+03
         0.9550000000E+08     0.1000000000E+03
         0.9560000000E+08     0.1000000000E+03
         0.9570000000E+08     0.1000000000E+03
         0.9580000000E+08     0.1000000000E+03
         0.9590000000E+08     0.1000000000E+03
         0.9590000000E+08     0.1000000000E+03
         0.9600000000E+08     0.1000000000E+03
         0.9610000000E+08     0.1000000000E+03
         0.9620000000E+08     0.1000000000E+03
         0.9630000000E+08     0.1000000000E+03
         0.9640000000E+08     0.1000000000E+03
         0.9650000000E+08     0.1000000000E+03
         0.9660000000E+08     0.1000000000E+03
         0.9670000000E+08     0.1000000000E+03
         0.9680000000E+08     0.1000000000E+03
         0.9690000000E+08     0.1000000000E+03
         0.9690000000E+08     0.1000000000E+03
         0.9700000000E+08     0.1000000000E+03
         0.9710000000E+08     0.1000000000E+03
         0.9720000000E+08     0.1000000000E+03
         0.9730000000E+08     0.1000000000E+03
         0.9740000000E+08     0.1000000000E+03
         0.9750000000E+08     0.1000000000E+03
         0.9750000000E+08     0.1000000000E+03
         0.9760000000E+08     0.1000000000E+03
         0.9770000000E+08     0.1000000000E+03
         0.9780000000E+08     0.1000000000E+03
         0.9790000000E+08     0.1000000000E+03
         0.9800000000E+08     0.1000000000E+03
         0.9810000000E+08     0.1000000000E+03
         0.9810000000E+08     0.1000000000E+03
         0.9820000000E+08     0.1000000000E+03
         0.9830000000E+08     0.1000000000E+03
         0.9840000000E+08     0.1000000000E+03
         0.9850000000E+08     0.1000000000E+03
         0.9860000000E+08     0.1000000000E+03
         0.9870000000E+08     0.1000000000E+03
         0.9880000000E+08     0.1000000000E+03
         0.9890000000E+08     0.1000000000E+03
         0.9900000000E+08     0.1000000000E+03
         0.9910000000E+08     0.1000000000E+03
         0.9910000000E+08     0.1000000000E+03
         0.9920000000E+08     0.1000000000E+03
         0.9930000000E+08     0.1000000000E+03
         0.9940000000E+08     0.1000000000E+03
         0.9950000000E+08     0.1000000000E+03
         0.9960000000E+08     0.1000000000E+03
         0.9970000000E+08     0.1000000000E+03
         0.9970000000E+08     0.1000000000E+03
         0.9980000000E+08     0.1000000000E+03
         0.9990000000E+08     0.1000000000E+03
         0.1000000000E+09     0.1000000000E+03
         0.1001000000E+09     0.1000000000E+03
         0.1002000000E+09     0.1000000000E+03
         0.1003000000E+09     0.1000000000E+03
         0.1003000000E+09     0.1000000000E+03
         0.1004000000E+09     0.1000000000E+03
         0.1005000000E+09     0.1000000000E+03
         0.1006000000E+09     0.1000000000E+03
         0.1007000000E+09     0.1000000000E+03
         0.1008000000E+09     0.1000000000E+03
         0.1009000000E+09     0.1000000000E+03
         0.1010000000E+09     0.1000000000E+03
         0.1011000000E+09     0.1000000000E+03
         0.1012000000E+09     0.1000000000E+03
         0.1013000000E+09     0.1000000000E+03
         0.1013000000E+09     0.1000000000E+03
         0.1014000000E+09     0.1000000000E+03
         0.1015000000E+09     0.1000000000E+03
         0.1016000000E+09     0.1000000000E+03
         0.1017000000E+09     0.1000000000E+03
         0.1018000000E+09     0.1000000000E+03
         0.1019000000E+09     0.1000000000E+03
         0.1019000000E+09     0.1000000000E+03
         0.1020000000E+09     0.1000000000E+03
         0.1021000000E+09     0.1000000000E+03
         0.1022000000E+09     0.1000000000E+03
         0.1023000000E+09     0.1000000000E+03
         0.1024000000E+09     0.1000000000E+03
         0.1025000000E+09     0.1000000000E+03
         0.1025000000E+09     0.1000000000E+03
         0.1026000000E+09     0.1000000000E+03
         0.1027000000E+09     0.1000000000E+03
         0.1028000000E+09     0.1000000000E+03
         0.1029000000E+09     0.1000000000E+03
         0.1030000000E+09     0.1000000000E+03
         0.1031000000E+09     0.1000000000E+03
         0.1032000000E+09     0.1000000000E+03
         0.1033000000E+09     0.1000000000E+03
         0.1034000000E+09     0.1000000000E+03
         0.1035000000E+09     0.1000000000E+03
         0.1035000000E+09     0.1000000000E+03
         0.1036000000E+09     0.1000000000E+03
         0.1037000000E+09     0.1000000000E+03
         0.1038000000E+09     0.1000000000E+03
         0.1039000000E+09     0.1000000000E+03
         0.1040000000E+09     0.1000000000E+03
         0.1041000000E+09     0.1000000000E+03
         0.1041000000E+09     0.1000000000E+03
         0.1042000000E+09     0.1000000000E+03
         0.1043000000E+09     0.1000000000E+03
         0.1044000000E+09     0.1000000000E+03
         0.1045000000E+09     0.1000000000E+03
         0.1046000000E+09     0.1000000000E+03
         0.1047000000E+09     0.1000000000E+03
         0.1047000000E+09     0.1000000000E+03
         0.1048000000E+09     0.1000000000E+03
         0.1049000000E+09     0.1000000000E+03
         0.1050000000E+09     0.1000000000E+03
         0.1051000000E+09     0.1000000000E+03
         0.1052000000E+09     0.1000000000E+03
         0.1053000000E+09     0.1000000000E+03
         0.1054000000E+09     0.1000000000E+03
         0.1055000000E+09     0.1000000000E+03
         0.1056000000E+09     0.1000000000E+03
         0.1057000000E+09     0.1000000000E+03
         0.1057000000E+09     0.1000000000E+03
         0.1058000000E+09     0.1000000000E+03
         0.1059000000E+09     0.1000000000E+03
         0.1060000000E+09     0.1000000000E+03
         0.1061000000E+09     0.1000000000E+03
         0.1062000000E+09     0.1000000000E+03
         0.1063000000E+09     0.1000000000E+03
         0.1063000000E+09     0.1000000000E+03
         0.1064000000E+09     0.1000000000E+03
         0.1065000000E+09     0.1000000000E+03
         0.1066000000E+09     0.1000000000E+03
         0.1067000000E+09     0.1000000000E+03
         0.1068000000E+09     0.1000000000E+03
         0.1069000000E+09     0.1000000000E+03
         0.1069000000E+09     0.1000000000E+03
         0.1070000000E+09     0.1000000000E+03
         0.1071000000E+09     0.1000000000E+03
         0.1072000000E+09     0.1000000000E+03
         0.1073000000E+09     0.1000000000E+03
         0.1074000000E+09     0.1000000000E+03
         0.1075000000E+09     0.1000000000E+03
         0.1076000000E+09     0.1000000000E+03
         0.1077000000E+09     0.1000000000E+03
         0.1078000000E+09     0.1000000000E+03
         0.1079000000E+09     0.1000000000E+03
         0.1079000000E+09     0.1000000000E+03
         0.1080000000E+09     0.1000000000E+03
         0.1081000000E+09     0.1000000000E+03
         0.1082000000E+09     0.1000000000E+03
         0.1083000000E+09     0.1000000000E+03
         0.1084000000E+09     0.1000000000E+03
         0.1085000000E+09     0.1000000000E+03
         0.1085000000E+09     0.1000000000E+03
         0.1086000000E+09     0.1000000000E+03
         0.1087000000E+09     0.1000000000E+03
         0.1088000000E+09     0.1000000000E+03
         0.1089000000E+09     0.1000000000E+03
         0.1090000000E+09     0.1000000000E+03
         0.1091000000E+09     0.1000000000E+03
         0.1091000000E+09     0.1000000000E+03
         0.1092000000E+09     0.1000000000E+03
         0.1093000000E+09     0.1000000000E+03
         0.1094000000E+09     0.1000000000E+03
         0.1095000000E+09     0.1000000000E+03
         0.1096000000E+09     0.1000000000E+03
         0.1097000000E+09     0.1000000000E+03
         0.1098000000E+09     0.1000000000E+03
         0.1099000000E+09     0.1000000000E+03
         0.1100000000E+09     0.1000000000E+03
         0.1101000000E+09     0.1000000000E+03
         0.1101000000E+09     0.1000000000E+03
         0.1102000000E+09     0.1000000000E+03
         0.1103000000E+09     0.1000000000E+03
         0.1104000000E+09     0.1000000000E+03
         0.1105000000E+09     0.1000000000E+03
         0.1106000000E+09     0.1000000000E+03
         0.1107000000E+09     0.1000000000E+03
         0.1107000000E+09     0.1000000000E+03
         0.1108000000E+09     0.1000000000E+03
         0.1109000000E+09     0.1000000000E+03
         0.1110000000E+09     0.1000000000E+03
         0.1111000000E+09     0.1000000000E+03
         0.1112000000E+09     0.1000000000E+03
         0.1113000000E+09     0.1000000000E+03
         0.1113000000E+09     0.1000000000E+03
         0.1114000000E+09     0.1000000000E+03
         0.1115000000E+09     0.1000000000E+03
         0.1116000000E+09     0.1000000000E+03
         0.1117000000E+09     0.1000000000E+03
         0.1118000000E+09     0.1000000000E+03
         0.1119000000E+09     0.1000000000E+03
         0.1120000000E+09     0.1000000000E+03
         0.1121000000E+09     0.1000000000E+03
         0.1122000000E+09     0.1000000000E+03
         0.1123000000E+09     0.1000000000E+03
         0.1123000000E+09     0.1000000000E+03
         0.1124000000E+09     0.1000000000E+03
         0.1125000000E+09     0.1000000000E+03
         0.1126000000E+09     0.1000000000E+03
         0.1127000000E+09     0.1000000000E+03
         0.1128000000E+09     0.1000000000E+03
         0.1129000000E+09     0.1000000000E+03
         0.1129000000E+09     0.1000000000E+03
         0.1130000000E+09     0.1000000000E+03
         0.1131000000E+09     0.1000000000E+03
         0.1132000000E+09     0.1000000000E+03
         0.1133000000E+09     0.1000000000E+03
         0.1134000000E+09     0.1000000000E+03
         0.1135000000E+09     0.1000000000E+03
         0.1135000000E+09     0.1000000000E+03
         0.1136000000E+09     0.1000000000E+03
         0.1137000000E+09     0.1000000000E+03
         0.1138000000E+09     0.1000000000E+03
         0.1139000000E+09     0.1000000000E+03
         0.1140000000E+09     0.1000000000E+03
         0.1141000000E+09     0.1000000000E+03
         0.1142000000E+09     0.1000000000E+03
         0.1143000000E+09     0.1000000000E+03
         0.1144000000E+09     0.1000000000E+03
         0.1145000000E+09     0.1000000000E+03
         0.1145000000E+09     0.1000000000E+03
         0.1146000000E+09     0.1000000000E+03
         0.1147000000E+09     0.1000000000E+03
         0.1148000000E+09     0.1000000000E+03
         0.1149000000E+09     0.1000000000E+03
         0.1150000000E+09     0.1000000000E+03
         0.1151000000E+09     0.1000000000E+03
         0.1151000000E+09     0.1000000000E+03
         0.1152000000E+09     0.1000000000E+03
         0.1153000000E+09     0.1000000000E+03
         0.1154000000E+09     0.1000000000E+03
         0.1155000000E+09     0.1000000000E+03
         0.1156000000E+09     0.1000000000E+03
         0.1157000000E+09     0.1000000000E+03
         0.1157000000E+09     0.1000000000E+03
         0.1158000000E+09     0.1000000000E+03
         0.1159000000E+09     0.1000000000E+03
         0.1160000000E+09     0.1000000000E+03
         0.1161000000E+09     0.1000000000E+03
         0.1162000000E+09     0.1000000000E+03
         0.1163000000E+09     0.1000000000E+03
         0.1164000000E+09     0.1000000000E+03
         0.1165000000E+09     0.1000000000E+03
         0.1166000000E+09     0.1000000000E+03
         0.1167000000E+09     0.1000000000E+03
         0.1167000000E+09     0.1000000000E+03
         0.1168000000E+09     0.1000000000E+03
         0.1169000000E+09     0.1000000000E+03
         0.1170000000E+09     0.1000000000E+03
         0.1171000000E+09     0.1000000000E+03
         0.1172000000E+09     0.1000000000E+03
         0.1173000000E+09     0.1000000000E+03
         0.1173000000E+09     0.1000000000E+03
         0.1174000000E+09     0.1000000000E+03
         0.1175000000E+09     0.1000000000E+03
         0.1176000000E+09     0.1000000000E+03
         0.1177000000E+09     0.1000000000E+03
         0.1178000000E+09     0.1000000000E+03
         0.1179000000E+09     0.1000000000E+03
         0.1179000000E+09     0.1000000000E+03
         0.1180000000E+09     0.1000000000E+03
         0.1181000000E+09     0.1000000000E+03
         0.1182000000E+09     0.1000000000E+03
         0.1183000000E+09     0.1000000000E+03
         0.1184000000E+09     0.1000000000E+03
         0.1185000000E+09     0.1000000000E+03
         0.1186000000E+09     0.1000000000E+03
         0.1187000000E+09     0.1000000000E+03
         0.1188000000E+09     0.1000000000E+03
         0.1189000000E+09     0.1000000000E+03
         0.1189000000E+09     0.1000000000E+03
         0.1190000000E+09     0.1000000000E+03
         0.1191000000E+09     0.1000000000E+03
         0.1192000000E+09     0.1000000000E+03
         0.1193000000E+09     0.1000000000E+03
         0.1194000000E+09     0.1000000000E+03
         0.1195000000E+09     0.1000000000E+03
         0.1195000000E+09     0.1000000000E+03
         0.1196000000E+09     0.1000000000E+03
         0.1197000000E+09     0.1000000000E+03
         0.1198000000E+09     0.1000000000E+03
         0.1199000000E+09     0.1000000000E+03
         0.1200000000E+09     0.1000000000E+03
         0.1201000000E+09     0.1000000000E+03
         0.1201000000E+09     0.1000000000E+03
         0.1202000000E+09     0.1000000000E+03
         0.1203000000E+09     0.1000000000E+03
         0.1204000000E+09     0.1000000000E+03
         0.1205000000E+09     0.1000000000E+03
         0.1206000000E+09     0.1000000000E+03
         0.1207000000E+09     0.1000000000E+03
         0.1208000000E+09     0.1000000000E+03
         0.1209000000E+09     0.1000000000E+03
         0.1210000000E+09     0.1000000000E+03
         0.1211000000E+09     0.1000000000E+03
         0.1211000000E+09     0.1000000000E+03
         0.1212000000E+09     0.1000000000E+03
         0.1213000000E+09     0.1000000000E+03
         0.1214000000E+09     0.1000000000E+03
         0.1215000000E+09     0.1000000000E+03
         0.1216000000E+09     0.1000000000E+03
         0.1217000000E+09     0.1000000000E+03
         0.1217000000E+09     0.1000000000E+03
         0.1218000000E+09     0.1000000000E+03
         0.1219000000E+09     0.1000000000E+03
         0.1220000000E+09     0.1000000000E+03
         0.1221000000E+09     0.1000000000E+03
         0.1222000000E+09     0.1000000000E+03
         0.1223000000E+09     0.1000000000E+03
         0.1223000000E+09     0.1000000000E+03
         0.1224000000E+09     0.1000000000E+03
         0.1225000000E+09     0.1000000000E+03
         0.1226000000E+09     0.1000000000E+03
         0.1227000000E+09     0.1000000000E+03
         0.1228000000E+09     0.1000000000E+03
         0.1229000000E+09     0.1000000000E+03
         0.1230000000E+09     0.1000000000E+03
         0.1231000000E+09     0.1000000000E+03
         0.1232000000E+09     0.1000000000E+03
         0.1233000000E+09     0.1000000000E+03
         0.1233000000E+09     0.1000000000E+03
         0.1234000000E+09     0.1000000000E+03
         0.1235000000E+09     0.1000000000E+03
         0.1236000000E+09     0.1000000000E+03
         0.1237000000E+09     0.1000000000E+03
         0.1238000000E+09     0.1000000000E+03
         0.1239000000E+09     0.1000000000E+03
         0.1239000000E+09     0.1000000000E+03
         0.1240000000E+09     0.1000000000E+03
         0.1241000000E+09     0.1000000000E+03
         0.1242000000E+09     0.1000000000E+03
         0.1243000000E+09     0.1000000000E+03
         0.1244000000E+09     0.1000000000E+03
         0.1245000000E+09     0.1000000000E+03
         0.1245000000E+09     0.1000000000E+03
         0.1246000000E+09     0.1000000000E+03
         0.1247000000E+09     0.1000000000E+03
         0.1248000000E+09     0.1000000000E+03
         0.1249000000E+09     0.1000000000E+03
         0.1250000000E+09     0.1000000000E+03
         0.1251000000E+09     0.1000000000E+03
         0.1252000000E+09     0.1000000000E+03
         0.1253000000E+09     0.1000000000E+03
         0.1254000000E+09     0.1000000000E+03
         0.1255000000E+09     0.1000000000E+03
         0.1255000000E+09     0.1000000000E+03
         0.1256000000E+09     0.1000000000E+03
         0.1257000000E+09     0.1000000000E+03
         0.1258000000E+09     0.1000000000E+03
         0.1259000000E+09     0.1000000000E+03
         0.1260000000E+09     0.1000000000E+03



            AREAL INFILTRATION RATE
 READING ON UNIT   19 WITH FORMAT: (10F4.0)            

            1           2           3           4           5           6           7           8           9          10
 ........................................................................................................................
   1   1.0000E-10  2.0000E-10   0.000       0.000       0.000       0.000       0.000       0.000       0.000       0.000    
   2   2.0000E-10  1.0000E-10  2.0000E-10   0.000       0.000      8.0000E-10  8.0000E-10  5.0000E-10   0.000       0.000    
   3    0.000      5.0000E-10  1.0000E-10  1.0000E-10  8.0000E-10  8.0000E-10  5.0000E-10  5.0000E-10   0.000       0.000    
   4   8.0000E-10  5.0000E-10  1.0000E-10  1.0000E-10  1.0000E-10  1.0000E-10  1.0000E-10  1.0000E-10  2.0000E-10   0.000    
   5   8.0000E-10  5.0000E-10  1.0000E-10  1.0000E-10  1.0000E-10  1.0000E-10  1.0000E-10  1.0000E-10  1.0000E-10  1.0000E-10
   6   8.0000E-10  5.0000E-10  5.0000E-10  2.0000E-10  2.0000E-10  1.0000E-10  1.0000E-10  1.0000E-10  1.0000E-10  5.0000E-10
   7   8.0000E-10  5.0000E-10  5.0000E-10  2.0000E-10  2.0000E-10  1.0000E-10  1.0000E-10  2.0000E-10  2.0000E-10   0.000    
   8    0.000      5.0000E-10  5.0000E-10  2.0000E-10  2.0000E-10  1.0000E-10  1.0000E-10  2.0000E-10  5.0000E-10   0.000    
   9    0.000      5.0000E-10  5.0000E-10  2.0000E-10  2.0000E-10  1.0000E-10  1.0000E-10  2.0000E-10  5.0000E-10   0.000    
  10    0.000      5.0000E-10  5.0000E-10  2.0000E-10  2.0000E-10  1.0000E-10  1.0000E-10  2.0000E-10  5.0000E-10  8.0000E-10
  11    0.000      1.0000E-10  1.0000E-10  1.0000E-10  1.0000E-10  1.0000E-10  1.0000E-10  2.0000E-10  5.0000E-10   0.000    
  12   1.0000E-10  1.0000E-10  1.0000E-10  1.0000E-10  1.0000E-10  1.0000E-10  1.0000E-10  1.0000E-10  2.0000E-10   0.000    
  13   1.0000E-10  1.0000E-10  2.0000E-10  2.0000E-10  2.0000E-10  2.0000E-10  2.0000E-10  1.0000E-10  1.0000E-10   0.000    
  14    0.000      2.0000E-10  5.0000E-10  5.0000E-10  5.0000E-10  5.0000E-10  5.0000E-10  2.0000E-10  1.0000E-10   0.000    
  15    0.000       0.000      8.0000E-10  8.0000E-10  8.0000E-10  8.0000E-10   0.000       0.000       0.000       0.000    

                  ET RATE =  1.000000E-08

      ET EXTINCTION DEPTH =  0.500000    

 EXTINCTION WATER CONTENT =  0.200000    

EXTINCTION WATER CONTENT FOR CELL AT ROW     1, COLUMN     1 IS LESS THAN RESIDUAL WATER CONTENT-- SETTING EXTINCTION WATER CONTENT EQUAL TO RESIDUAL WATER CONTENT

EXTINCTION WATER CONTENT FOR CELL AT ROW     1, COLUMN     2 IS LESS THAN RESIDUAL WATER CONTENT-- SETTING EXTINCTION WATER CONTENT EQUAL TO RESIDUAL WATER CONTENT

EXTINCTION WATER CONTENT FOR CELL AT ROW     2, COLUMN     1 IS LESS THAN RESIDUAL WATER CONTENT-- SETTING EXTINCTION WATER CONTENT EQUAL TO RESIDUAL WATER CONTENT

EXTINCTION WATER CONTENT FOR CELL AT ROW     2, COLUMN     2 IS LESS THAN RESIDUAL WATER CONTENT-- SETTING EXTINCTION WATER CONTENT EQUAL TO RESIDUAL WATER CONTENT

EXTINCTION WATER CONTENT FOR CELL AT ROW     2, COLUMN     3 IS LESS THAN RESIDUAL WATER CONTENT-- SETTING EXTINCTION WATER CONTENT EQUAL TO RESIDUAL WATER CONTENT

EXTINCTION WATER CONTENT FOR CELL AT ROW     2, COLUMN     6 IS LESS THAN RESIDUAL WATER CONTENT-- SETTING EXTINCTION WATER CONTENT EQUAL TO RESIDUAL WATER CONTENT

EXTINCTION WATER CONTENT FOR CELL AT ROW     2, COLUMN     7 IS LESS THAN RESIDUAL WATER CONTENT-- SETTING EXTINCTION WATER CONTENT EQUAL TO RESIDUAL WATER CONTENT

EXTINCTION WATER CONTENT FOR CELL AT ROW     2, COLUMN     8 IS LESS THAN RESIDUAL WATER CONTENT-- SETTING EXTINCTION WATER CONTENT EQUAL TO RESIDUAL WATER CONTENT

EXTINCTION WATER CONTENT FOR CELL AT ROW     3, COLUMN     2 IS LESS THAN RESIDUAL WATER CONTENT-- SETTING EXTINCTION WATER CONTENT EQUAL TO RESIDUAL WATER CONTENT

EXTINCTION WATER CONTENT FOR CELL AT ROW     3, COLUMN     3 IS LESS THAN RESIDUAL WATER CONTENT-- SETTING EXTINCTION WATER CONTENT EQUAL TO RESIDUAL WATER CONTENT

EXTINCTION WATER CONTENT FOR CELL AT ROW     3, COLUMN     4 IS LESS THAN RESIDUAL WATER CONTENT-- SETTING EXTINCTION WATER CONTENT EQUAL TO RESIDUAL WATER CONTENT

EXTINCTION WATER CONTENT FOR CELL AT ROW     3, COLUMN     5 IS LESS THAN RESIDUAL WATER CONTENT-- SETTING EXTINCTION WATER CONTENT EQUAL TO RESIDUAL WATER CONTENT

EXTINCTION WATER CONTENT FOR CELL AT ROW     3, COLUMN     6 IS LESS THAN RESIDUAL WATER CONTENT-- SETTING EXTINCTION WATER CONTENT EQUAL TO RESIDUAL WATER CONTENT

EXTINCTION WATER CONTENT FOR CELL AT ROW     3, COLUMN     7 IS LESS THAN RESIDUAL WATER CONTENT-- SETTING EXTINCTION WATER CONTENT EQUAL TO RESIDUAL WATER CONTENT

EXTINCTION WATER CONTENT FOR CELL AT ROW     3, COLUMN     8 IS LESS THAN RESIDUAL WATER CONTENT-- SETTING EXTINCTION WATER CONTENT EQUAL TO RESIDUAL WATER CONTENT

EXTINCTION WATER CONTENT FOR CELL AT ROW     4, COLUMN     1 IS LESS THAN RESIDUAL WATER CONTENT-- SETTING EXTINCTION WATER CONTENT EQUAL TO RESIDUAL WATER CONTENT

EXTINCTION WATER CONTENT FOR CELL AT ROW     4, COLUMN     2 IS LESS THAN RESIDUAL WATER CONTENT-- SETTING EXTINCTION WATER CONTENT EQUAL TO RESIDUAL WATER CONTENT

EXTINCTION WATER CONTENT FOR CELL AT ROW     4, COLUMN     3 IS LESS THAN RESIDUAL WATER CONTENT-- SETTING EXTINCTION WATER CONTENT EQUAL TO RESIDUAL WATER CONTENT

EXTINCTION WATER CONTENT FOR CELL AT ROW     4, COLUMN     4 IS LESS THAN RESIDUAL WATER CONTENT-- SETTING EXTINCTION WATER CONTENT EQUAL TO RESIDUAL WATER CONTENT

EXTINCTION WATER CONTENT FOR CELL AT ROW     4, COLUMN     5 IS LESS THAN RESIDUAL WATER CONTENT-- SETTING EXTINCTION WATER CONTENT EQUAL TO RESIDUAL WATER CONTENT

EXTINCTION WATER CONTENT FOR CELL AT ROW     4, COLUMN     6 IS LESS THAN RESIDUAL WATER CONTENT-- SETTING EXTINCTION WATER CONTENT EQUAL TO RESIDUAL WATER CONTENT

EXTINCTION WATER CONTENT FOR CELL AT ROW     4, COLUMN     7 IS LESS THAN RESIDUAL WATER CONTENT-- SETTING EXTINCTION WATER CONTENT EQUAL TO RESIDUAL WATER CONTENT

EXTINCTION WATER CONTENT FOR CELL AT ROW     4, COLUMN     8 IS LESS THAN RESIDUAL WATER CONTENT-- SETTING EXTINCTION WATER CONTENT EQUAL TO RESIDUAL WATER CONTENT

EXTINCTION WATER CONTENT FOR CELL AT ROW     4, COLUMN     9 IS LESS THAN RESIDUAL WATER CONTENT-- SETTING EXTINCTION WATER CONTENT EQUAL TO RESIDUAL WATER CONTENT

EXTINCTION WATER CONTENT FOR CELL AT ROW     5, COLUMN     1 IS LESS THAN RESIDUAL WATER CONTENT-- SETTING EXTINCTION WATER CONTENT EQUAL TO RESIDUAL WATER CONTENT

EXTINCTION WATER CONTENT FOR CELL AT ROW     5, COLUMN     2 IS LESS THAN RESIDUAL WATER CONTENT-- SETTING EXTINCTION WATER CONTENT EQUAL TO RESIDUAL WATER CONTENT

EXTINCTION WATER CONTENT FOR CELL AT ROW     5, COLUMN     3 IS LESS THAN RESIDUAL WATER CONTENT-- SETTING EXTINCTION WATER CONTENT EQUAL TO RESIDUAL WATER CONTENT

EXTINCTION WATER CONTENT FOR CELL AT ROW     5, COLUMN     4 IS LESS THAN RESIDUAL WATER CONTENT-- SETTING EXTINCTION WATER CONTENT EQUAL TO RESIDUAL WATER CONTENT

EXTINCTION WATER CONTENT FOR CELL AT ROW     5, COLUMN     5 IS LESS THAN RESIDUAL WATER CONTENT-- SETTING EXTINCTION WATER CONTENT EQUAL TO RESIDUAL WATER CONTENT

EXTINCTION WATER CONTENT FOR CELL AT ROW     5, COLUMN     6 IS LESS THAN RESIDUAL WATER CONTENT-- SETTING EXTINCTION WATER CONTENT EQUAL TO RESIDUAL WATER CONTENT

EXTINCTION WATER CONTENT FOR CELL AT ROW     5, COLUMN     7 IS LESS THAN RESIDUAL WATER CONTENT-- SETTING EXTINCTION WATER CONTENT EQUAL TO RESIDUAL WATER CONTENT

EXTINCTION WATER CONTENT FOR CELL AT ROW     5, COLUMN     8 IS LESS THAN RESIDUAL WATER CONTENT-- SETTING EXTINCTION WATER CONTENT EQUAL TO RESIDUAL WATER CONTENT

EXTINCTION WATER CONTENT FOR CELL AT ROW     5, COLUMN     9 IS LESS THAN RESIDUAL WATER CONTENT-- SETTING EXTINCTION WATER CONTENT EQUAL TO RESIDUAL WATER CONTENT

EXTINCTION WATER CONTENT FOR CELL AT ROW     5, COLUMN    10 IS LESS THAN RESIDUAL WATER CONTENT-- SETTING EXTINCTION WATER CONTENT EQUAL TO RESIDUAL WATER CONTENT

EXTINCTION WATER CONTENT FOR CELL AT ROW     6, COLUMN     1 IS LESS THAN RESIDUAL WATER CONTENT-- SETTING EXTINCTION WATER CONTENT EQUAL TO RESIDUAL WATER CONTENT

EXTINCTION WATER CONTENT FOR CELL AT ROW     6, COLUMN     2 IS LESS THAN RESIDUAL WATER CONTENT-- SETTING EXTINCTION WATER CONTENT EQUAL TO RESIDUAL WATER CONTENT

EXTINCTION WATER CONTENT FOR CELL AT ROW     6, COLUMN     3 IS LESS THAN RESIDUAL WATER CONTENT-- SETTING EXTINCTION WATER CONTENT EQUAL TO RESIDUAL WATER CONTENT

EXTINCTION WATER CONTENT FOR CELL AT ROW     6, COLUMN     4 IS LESS THAN RESIDUAL WATER CONTENT-- SETTING EXTINCTION WATER CONTENT EQUAL TO RESIDUAL WATER CONTENT

EXTINCTION WATER CONTENT FOR CELL AT ROW     6, COLUMN     5 IS LESS THAN RESIDUAL WATER CONTENT-- SETTING EXTINCTION WATER CONTENT EQUAL TO RESIDUAL WATER CONTENT

EXTINCTION WATER CONTENT FOR CELL AT ROW     6, COLUMN     6 IS LESS THAN RESIDUAL WATER CONTENT-- SETTING EXTINCTION WATER CONTENT EQUAL TO RESIDUAL WATER CONTENT

EXTINCTION WATER CONTENT FOR CELL AT ROW     6, COLUMN     7 IS LESS THAN RESIDUAL WATER CONTENT-- SETTING EXTINCTION WATER CONTENT EQUAL TO RESIDUAL WATER CONTENT

EXTINCTION WATER CONTENT FOR CELL AT ROW     6, COLUMN     8 IS LESS THAN RESIDUAL WATER CONTENT-- SETTING EXTINCTION WATER CONTENT EQUAL TO RESIDUAL WATER CONTENT

EXTINCTION WATER CONTENT FOR CELL AT ROW     6, COLUMN     9 IS LESS THAN RESIDUAL WATER CONTENT-- SETTING EXTINCTION WATER CONTENT EQUAL TO RESIDUAL WATER CONTENT

EXTINCTION WATER CONTENT FOR CELL AT ROW     6, COLUMN    10 IS LESS THAN RESIDUAL WATER CONTENT-- SETTING EXTINCTION WATER CONTENT EQUAL TO RESIDUAL WATER CONTENT

EXTINCTION WATER CONTENT FOR CELL AT ROW     7, COLUMN     1 IS LESS THAN RESIDUAL WATER CONTENT-- SETTING EXTINCTION WATER CONTENT EQUAL TO RESIDUAL WATER CONTENT

EXTINCTION WATER CONTENT FOR CELL AT ROW     7, COLUMN     2 IS LESS THAN RESIDUAL WATER CONTENT-- SETTING EXTINCTION WATER CONTENT EQUAL TO RESIDUAL WATER CONTENT

EXTINCTION WATER CONTENT FOR CELL AT ROW     7, COLUMN     3 IS LESS THAN RESIDUAL WATER CONTENT-- SETTING EXTINCTION WATER CONTENT EQUAL TO RESIDUAL WATER CONTENT

EXTINCTION WATER CONTENT FOR CELL AT ROW     7, COLUMN     4 IS LESS THAN RESIDUAL WATER CONTENT-- SETTING EXTINCTION WATER CONTENT EQUAL TO RESIDUAL WATER CONTENT

EXTINCTION WATER CONTENT FOR CELL AT ROW     7, COLUMN     5 IS LESS THAN RESIDUAL WATER CONTENT-- SETTING EXTINCTION WATER CONTENT EQUAL TO RESIDUAL WATER CONTENT

EXTINCTION WATER CONTENT FOR CELL AT ROW     7, COLUMN     6 IS LESS THAN RESIDUAL WATER CONTENT-- SETTING EXTINCTION WATER CONTENT EQUAL TO RESIDUAL WATER CONTENT

EXTINCTION WATER CONTENT FOR CELL AT ROW     7, COLUMN     7 IS LESS THAN RESIDUAL WATER CONTENT-- SETTING EXTINCTION WATER CONTENT EQUAL TO RESIDUAL WATER CONTENT

EXTINCTION WATER CONTENT FOR CELL AT ROW     7, COLUMN     8 IS LESS THAN RESIDUAL WATER CONTENT-- SETTING EXTINCTION WATER CONTENT EQUAL TO RESIDUAL WATER CONTENT

EXTINCTION WATER CONTENT FOR CELL AT ROW     7, COLUMN     9 IS LESS THAN RESIDUAL WATER CONTENT-- SETTING EXTINCTION WATER CONTENT EQUAL TO RESIDUAL WATER CONTENT

EXTINCTION WATER CONTENT FOR CELL AT ROW     8, COLUMN     2 IS LESS THAN RESIDUAL WATER CONTENT-- SETTING EXTINCTION WATER CONTENT EQUAL TO RESIDUAL WATER CONTENT

EXTINCTION WATER CONTENT FOR CELL AT ROW     8, COLUMN     3 IS LESS THAN RESIDUAL WATER CONTENT-- SETTING EXTINCTION WATER CONTENT EQUAL TO RESIDUAL WATER CONTENT

EXTINCTION WATER CONTENT FOR CELL AT ROW     8, COLUMN     4 IS LESS THAN RESIDUAL WATER CONTENT-- SETTING EXTINCTION WATER CONTENT EQUAL TO RESIDUAL WATER CONTENT

EXTINCTION WATER CONTENT FOR CELL AT ROW     8, COLUMN     5 IS LESS THAN RESIDUAL WATER CONTENT-- SETTING EXTINCTION WATER CONTENT EQUAL TO RESIDUAL WATER CONTENT

EXTINCTION WATER CONTENT FOR CELL AT ROW     8, COLUMN     6 IS LESS THAN RESIDUAL WATER CONTENT-- SETTING EXTINCTION WATER CONTENT EQUAL TO RESIDUAL WATER CONTENT

EXTINCTION WATER CONTENT FOR CELL AT ROW     8, COLUMN     7 IS LESS THAN RESIDUAL WATER CONTENT-- SETTING EXTINCTION WATER CONTENT EQUAL TO RESIDUAL WATER CONTENT

EXTINCTION WATER CONTENT FOR CELL AT ROW     8, COLUMN     8 IS LESS THAN RESIDUAL WATER CONTENT-- SETTING EXTINCTION WATER CONTENT EQUAL TO RESIDUAL WATER CONTENT

EXTINCTION WATER CONTENT FOR CELL AT ROW     8, COLUMN     9 IS LESS THAN RESIDUAL WATER CONTENT-- SETTING EXTINCTION WATER CONTENT EQUAL TO RESIDUAL WATER CONTENT

EXTINCTION WATER CONTENT FOR CELL AT ROW     9, COLUMN     2 IS LESS THAN RESIDUAL WATER CONTENT-- SETTING EXTINCTION WATER CONTENT EQUAL TO RESIDUAL WATER CONTENT

EXTINCTION WATER CONTENT FOR CELL AT ROW     9, COLUMN     3 IS LESS THAN RESIDUAL WATER CONTENT-- SETTING EXTINCTION WATER CONTENT EQUAL TO RESIDUAL WATER CONTENT

EXTINCTION WATER CONTENT FOR CELL AT ROW     9, COLUMN     4 IS LESS THAN RESIDUAL WATER CONTENT-- SETTING EXTINCTION WATER CONTENT EQUAL TO RESIDUAL WATER CONTENT

EXTINCTION WATER CONTENT FOR CELL AT ROW     9, COLUMN     5 IS LESS THAN RESIDUAL WATER CONTENT-- SETTING EXTINCTION WATER CONTENT EQUAL TO RESIDUAL WATER CONTENT

EXTINCTION WATER CONTENT FOR CELL AT ROW     9, COLUMN     6 IS LESS THAN RESIDUAL WATER CONTENT-- SETTING EXTINCTION WATER CONTENT EQUAL TO RESIDUAL WATER CONTENT

EXTINCTION WATER CONTENT FOR CELL AT ROW     9, COLUMN     7 IS LESS THAN RESIDUAL WATER CONTENT-- SETTING EXTINCTION WATER CONTENT EQUAL TO RESIDUAL WATER CONTENT

EXTINCTION WATER CONTENT FOR CELL AT ROW     9, COLUMN     8 IS LESS THAN RESIDUAL WATER CONTENT-- SETTING EXTINCTION WATER CONTENT EQUAL TO RESIDUAL WATER CONTENT

EXTINCTION WATER CONTENT FOR CELL AT ROW     9, COLUMN     9 IS LESS THAN RESIDUAL WATER CONTENT-- SETTING EXTINCTION WATER CONTENT EQUAL TO RESIDUAL WATER CONTENT

EXTINCTION WATER CONTENT FOR CELL AT ROW    10, COLUMN     2 IS LESS THAN RESIDUAL WATER CONTENT-- SETTING EXTINCTION WATER CONTENT EQUAL TO RESIDUAL WATER CONTENT

EXTINCTION WATER CONTENT FOR CELL AT ROW    10, COLUMN     3 IS LESS THAN RESIDUAL WATER CONTENT-- SETTING EXTINCTION WATER CONTENT EQUAL TO RESIDUAL WATER CONTENT

EXTINCTION WATER CONTENT FOR CELL AT ROW    10, COLUMN     4 IS LESS THAN RESIDUAL WATER CONTENT-- SETTING EXTINCTION WATER CONTENT EQUAL TO RESIDUAL WATER CONTENT

EXTINCTION WATER CONTENT FOR CELL AT ROW    10, COLUMN     5 IS LESS THAN RESIDUAL WATER CONTENT-- SETTING EXTINCTION WATER CONTENT EQUAL TO RESIDUAL WATER CONTENT

EXTINCTION WATER CONTENT FOR CELL AT ROW    10, COLUMN     6 IS LESS THAN RESIDUAL WATER CONTENT-- SETTING EXTINCTION WATER CONTENT EQUAL TO RESIDUAL WATER CONTENT

EXTINCTION WATER CONTENT FOR CELL AT ROW    10, COLUMN     7 IS LESS THAN RESIDUAL WATER CONTENT-- SETTING EXTINCTION WATER CONTENT EQUAL TO RESIDUAL WATER CONTENT

EXTINCTION WATER CONTENT FOR CELL AT ROW    10, COLUMN     8 IS LESS THAN RESIDUAL WATER CONTENT-- SETTING EXTINCTION WATER CONTENT EQUAL TO RESIDUAL WATER CONTENT

EXTINCTION WATER CONTENT FOR CELL AT ROW    10, COLUMN     9 IS LESS THAN RESIDUAL WATER CONTENT-- SETTING EXTINCTION WATER CONTENT EQUAL TO RESIDUAL WATER CONTENT

EXTINCTION WATER CONTENT FOR CELL AT ROW    10, COLUMN    10 IS LESS THAN RESIDUAL WATER CONTENT-- SETTING EXTINCTION WATER CONTENT EQUAL TO RESIDUAL WATER CONTENT

EXTINCTION WATER CONTENT FOR CELL AT ROW    11, COLUMN     2 IS LESS THAN RESIDUAL WATER CONTENT-- SETTING EXTINCTION WATER CONTENT EQUAL TO RESIDUAL WATER CONTENT

EXTINCTION WATER CONTENT FOR CELL AT ROW    11, COLUMN     3 IS LESS THAN RESIDUAL WATER CONTENT-- SETTING EXTINCTION WATER CONTENT EQUAL TO RESIDUAL WATER CONTENT

EXTINCTION WATER CONTENT FOR CELL AT ROW    11, COLUMN     4 IS LESS THAN RESIDUAL WATER CONTENT-- SETTING EXTINCTION WATER CONTENT EQUAL TO RESIDUAL WATER CONTENT

EXTINCTION WATER CONTENT FOR CELL AT ROW    11, COLUMN     5 IS LESS THAN RESIDUAL WATER CONTENT-- SETTING EXTINCTION WATER CONTENT EQUAL TO RESIDUAL WATER CONTENT

EXTINCTION WATER CONTENT FOR CELL AT ROW    11, COLUMN     6 IS LESS THAN RESIDUAL WATER CONTENT-- SETTING EXTINCTION WATER CONTENT EQUAL TO RESIDUAL WATER CONTENT

EXTINCTION WATER CONTENT FOR CELL AT ROW    11, COLUMN     7 IS LESS THAN RESIDUAL WATER CONTENT-- SETTING EXTINCTION WATER CONTENT EQUAL TO RESIDUAL WATER CONTENT

EXTINCTION WATER CONTENT FOR CELL AT ROW    11, COLUMN     8 IS LESS THAN RESIDUAL WATER CONTENT-- SETTING EXTINCTION WATER CONTENT EQUAL TO RESIDUAL WATER CONTENT

EXTINCTION WATER CONTENT FOR CELL AT ROW    11, COLUMN     9 IS LESS THAN RESIDUAL WATER CONTENT-- SETTING EXTINCTION WATER CONTENT EQUAL TO RESIDUAL WATER CONTENT

EXTINCTION WATER CONTENT FOR CELL AT ROW    12, COLUMN     1 IS LESS THAN RESIDUAL WATER CONTENT-- SETTING EXTINCTION WATER CONTENT EQUAL TO RESIDUAL WATER CONTENT

EXTINCTION WATER CONTENT FOR CELL AT ROW    12, COLUMN     2 IS LESS THAN RESIDUAL WATER CONTENT-- SETTING EXTINCTION WATER CONTENT EQUAL TO RESIDUAL WATER CONTENT

EXTINCTION WATER CONTENT FOR CELL AT ROW    12, COLUMN     3 IS LESS THAN RESIDUAL WATER CONTENT-- SETTING EXTINCTION WATER CONTENT EQUAL TO RESIDUAL WATER CONTENT

EXTINCTION WATER CONTENT FOR CELL AT ROW    12, COLUMN     4 IS LESS THAN RESIDUAL WATER CONTENT-- SETTING EXTINCTION WATER CONTENT EQUAL TO RESIDUAL WATER CONTENT

EXTINCTION WATER CONTENT FOR CELL AT ROW    12, COLUMN     5 IS LESS THAN RESIDUAL WATER CONTENT-- SETTING EXTINCTION WATER CONTENT EQUAL TO RESIDUAL WATER CONTENT

EXTINCTION WATER CONTENT FOR CELL AT ROW    12, COLUMN     6 IS LESS THAN RESIDUAL WATER CONTENT-- SETTING EXTINCTION WATER CONTENT EQUAL TO RESIDUAL WATER CONTENT

EXTINCTION WATER CONTENT FOR CELL AT ROW    12, COLUMN     7 IS LESS THAN RESIDUAL WATER CONTENT-- SETTING EXTINCTION WATER CONTENT EQUAL TO RESIDUAL WATER CONTENT

EXTINCTION WATER CONTENT FOR CELL AT ROW    12, COLUMN     8 IS LESS THAN RESIDUAL WATER CONTENT-- SETTING EXTINCTION WATER CONTENT EQUAL TO RESIDUAL WATER CONTENT

EXTINCTION WATER CONTENT FOR CELL AT ROW    12, COLUMN     9 IS LESS THAN RESIDUAL WATER CONTENT-- SETTING EXTINCTION WATER CONTENT EQUAL TO RESIDUAL WATER CONTENT

EXTINCTION WATER CONTENT FOR CELL AT ROW    13, COLUMN     1 IS LESS THAN RESIDUAL WATER CONTENT-- SETTING EXTINCTION WATER CONTENT EQUAL TO RESIDUAL WATER CONTENT

EXTINCTION WATER CONTENT FOR CELL AT ROW    13, COLUMN     2 IS LESS THAN RESIDUAL WATER CONTENT-- SETTING EXTINCTION WATER CONTENT EQUAL TO RESIDUAL WATER CONTENT

EXTINCTION WATER CONTENT FOR CELL AT ROW    13, COLUMN     3 IS LESS THAN RESIDUAL WATER CONTENT-- SETTING EXTINCTION WATER CONTENT EQUAL TO RESIDUAL WATER CONTENT

EXTINCTION WATER CONTENT FOR CELL AT ROW    13, COLUMN     4 IS LESS THAN RESIDUAL WATER CONTENT-- SETTING EXTINCTION WATER CONTENT EQUAL TO RESIDUAL WATER CONTENT

EXTINCTION WATER CONTENT FOR CELL AT ROW    13, COLUMN     5 IS LESS THAN RESIDUAL WATER CONTENT-- SETTING EXTINCTION WATER CONTENT EQUAL TO RESIDUAL WATER CONTENT

EXTINCTION WATER CONTENT FOR CELL AT ROW    13, COLUMN     6 IS LESS THAN RESIDUAL WATER CONTENT-- SETTING EXTINCTION WATER CONTENT EQUAL TO RESIDUAL WATER CONTENT

EXTINCTION WATER CONTENT FOR CELL AT ROW    13, COLUMN     7 IS LESS THAN RESIDUAL WATER CONTENT-- SETTING EXTINCTION WATER CONTENT EQUAL TO RESIDUAL WATER CONTENT

EXTINCTION WATER CONTENT FOR CELL AT ROW    13, COLUMN     8 IS LESS THAN RESIDUAL WATER CONTENT-- SETTING EXTINCTION WATER CONTENT EQUAL TO RESIDUAL WATER CONTENT

EXTINCTION WATER CONTENT FOR CELL AT ROW    13, COLUMN     9 IS LESS THAN RESIDUAL WATER CONTENT-- SETTING EXTINCTION WATER CONTENT EQUAL TO RESIDUAL WATER CONTENT

EXTINCTION WATER CONTENT FOR CELL AT ROW    14, COLUMN     2 IS LESS THAN RESIDUAL WATER CONTENT-- SETTING EXTINCTION WATER CONTENT EQUAL TO RESIDUAL WATER CONTENT

EXTINCTION WATER CONTENT FOR CELL AT ROW    14, COLUMN     3 IS LESS THAN RESIDUAL WATER CONTENT-- SETTING EXTINCTION WATER CONTENT EQUAL TO RESIDUAL WATER CONTENT

EXTINCTION WATER CONTENT FOR CELL AT ROW    14, COLUMN     4 IS LESS THAN RESIDUAL WATER CONTENT-- SETTING EXTINCTION WATER CONTENT EQUAL TO RESIDUAL WATER CONTENT

EXTINCTION WATER CONTENT FOR CELL AT ROW    14, COLUMN     5 IS LESS THAN RESIDUAL WATER CONTENT-- SETTING EXTINCTION WATER CONTENT EQUAL TO RESIDUAL WATER CONTENT

EXTINCTION WATER CONTENT FOR CELL AT ROW    14, COLUMN     6 IS LESS THAN RESIDUAL WATER CONTENT-- SETTING EXTINCTION WATER CONTENT EQUAL TO RESIDUAL WATER CONTENT

EXTINCTION WATER CONTENT FOR CELL AT ROW    14, COLUMN     7 IS LESS THAN RESIDUAL WATER CONTENT-- SETTING EXTINCTION WATER CONTENT EQUAL TO RESIDUAL WATER CONTENT

EXTINCTION WATER CONTENT FOR CELL AT ROW    14, COLUMN     8 IS LESS THAN RESIDUAL WATER CONTENT-- SETTING EXTINCTION WATER CONTENT EQUAL TO RESIDUAL WATER CONTENT

EXTINCTION WATER CONTENT FOR CELL AT ROW    14, COLUMN     9 IS LESS THAN RESIDUAL WATER CONTENT-- SETTING EXTINCTION WATER CONTENT EQUAL TO RESIDUAL WATER CONTENT

EXTINCTION WATER CONTENT FOR CELL AT ROW    15, COLUMN     3 IS LESS THAN RESIDUAL WATER CONTENT-- SETTING EXTINCTION WATER CONTENT EQUAL TO RESIDUAL WATER CONTENT

EXTINCTION WATER CONTENT FOR CELL AT ROW    15, COLUMN     4 IS LESS THAN RESIDUAL WATER CONTENT-- SETTING EXTINCTION WATER CONTENT EQUAL TO RESIDUAL WATER CONTENT

EXTINCTION WATER CONTENT FOR CELL AT ROW    15, COLUMN     5 IS LESS THAN RESIDUAL WATER CONTENT-- SETTING EXTINCTION WATER CONTENT EQUAL TO RESIDUAL WATER CONTENT

EXTINCTION WATER CONTENT FOR CELL AT ROW    15, COLUMN     6 IS LESS THAN RESIDUAL WATER CONTENT-- SETTING EXTINCTION WATER CONTENT EQUAL TO RESIDUAL WATER CONTENT

       AIR ENTRY PRESSURE =  -1.10000    

            ROOT PRESSURE =  -75.0000    

            ROOT ACTIVITY =   1.00000    
 # AG segment list

 PROCESSING SEGMENT LIST

 FINISHED READING SEGMENT LIST
 # AG well list

 PROCESSING WELL LIST

 LAYER   ROW   COL   MAX STRESS RATE         
 --------------------------------------------
      1      1      6      4      -100.0    
      2      1      6      5      -100.0    
      3      1      7      4      -100.0    
      4      1      7      5      -100.0    
      5      1      8      4      -100.0    
      6      1      8      5      -100.0    

 FINISHED READING WELL LIST

      6 WELLS

 PROCESSING AG STRESS PERIOD DATA
 # AG stress period

 READING AG STRESS PERIOD DATA

 READING IRRIGATION SEGMENT

 READING IRRIGATION WELL

 READING SUPPLEMENTAL WELL

 NO IRRPOND OR REUSING IRRPOND DATA FROM LAST STRESS PERIOD

 END PROCESSING AG STRESS PERIOD DATA OPTIONS
 
 SOLVING FOR HEAD 
                                                   Max.-Head-Change                         Max.-Flux-Residual
  Residual-Control   Outer-Iter.   Inner-Iter.     Column Row Layer    Maximum-Head-Change  Column Row Layer    Maximum-Flux-Residual          L2-NORM 
          0                 1           6             2    2     1      -0.3091902076E+02       3    3    1        -0.3387725593E+01      0.9438782903E+01
          0                 2           6             1    1     1      -0.3160283285E+02       1   13    1        -0.6317714513E+02      0.6341706167E+02
          0                 3           5             1    1     1      -0.1218344615E+01       1   13    1        -0.2090503782E+01      0.2852988571E+01
          0                 4           5             5   13     1      -0.3531913066E+00       5   13    1        -0.5902045538E+00      0.6060815874E+00
          0                 5           4             5   14     1       0.5787736087E-01       5   13    1         0.2547334864E-01      0.4765464180E-01
          0                 6           2             5   14     1      -0.2238408348E-02       5   12    1        -0.2373336474E-02      0.3893753341E-02
          0                 7           1             5   12     1       0.4404395645E-04       5   12    1         0.1191690449E-03      0.1657812993E-03

    ------------------------------------------------
       NWT REQUIRED            7 OUTER ITERATIONS 
       AND A TOTAL OF         29 INNER ITERATIONS.
    ------------------------------------------------

 OUTPUT CONTROL FOR STRESS PERIOD    1   TIME STEP    1
    PRINT BUDGET
    PRINT HEAD FOR ALL LAYERS
    SAVE BUDGET
    SAVE HEAD FOR ALL LAYERS
 UBDSV2 SAVING "   CONSTANT HEAD" ON UNIT 102 AT TIME STEP 1, STRESS PERIOD 1
 UBDSV1 SAVING "FLOW RIGHT FACE " ON UNIT 102 AT TIME STEP 1, STRESS PERIOD 1
 UBDSV1 SAVING "FLOW FRONT FACE " ON UNIT 102 AT TIME STEP 1, STRESS PERIOD 1

  HEAD DEP BOUNDS   PERIOD    1   STEP     1
 BOUNDARY      1   LAYER   1   ROW    13   COL     1   RATE   -0.286536    
 BOUNDARY      2   LAYER   1   ROW    14   COL     9   RATE    0.287755    



 STREAM LISTING     PERIOD      1   STEP        1

 LAYER ROW COL. STREAM  RCH.  FLOW INTO     FLOW TO   FLOW OUT OF   OVRLND.     DIRECT     STREAM       STREAM     STREAM     STREAM   STREAMBED  STREAMBED
                SEG.NO.  NO.  STRM. RCH.    AQUIFER    STRM. RCH.    RUNOFF     PRECIP       ET          HEAD       DEPTH      WIDTH   CONDCTNC.   GRADIENT

   1    1    1     1     1    1.8750E+00  6.5285E-02   1.8097E+00  0.000E+00  0.000E+00  0.000E+00  1.09358E+03  5.296E-01  4.110E+00  1.850E-02  1.177E+00
   1    2    2     1     2    1.8097E+00  1.0002E-01   1.7097E+00  0.000E+00  0.000E+00  0.000E+00  1.08858E+03  5.186E-01  4.061E+00  2.843E-02  1.173E+00
   1    3    3     1     3    1.7097E+00  8.4225E-02   1.6255E+00  0.000E+00  0.000E+00  0.000E+00  1.08292E+03  5.059E-01  4.004E+00  2.402E-02  1.169E+00
   1    3    4     1     4    1.6255E+00  7.6652E-02   1.5488E+00  0.000E+00  0.000E+00  0.000E+00  1.07790E+03  4.946E-01  3.952E+00  2.193E-02  1.165E+00
   1    4    5     2     1    0.0000E+00  0.0000E+00   0.0000E+00  0.000E+00  0.000E+00  0.000E+00  1.07193E+03  0.000E+00  1.200E+01  7.800E-02  1.000E+00
   1    5    6     2     2    0.0000E+00  0.0000E+00   0.0000E+00  0.000E+00  0.000E+00  0.000E+00  1.06651E+03  0.000E+00  1.200E+01  6.000E-02  1.000E+00
   1    6    6     2     3    0.0000E+00  0.0000E+00   0.0000E+00  0.000E+00  0.000E+00  0.000E+00  1.06179E+03  0.000E+00  1.200E+01  6.000E-02  1.000E+00
   1    7    6     2     4    0.0000E+00  0.0000E+00   0.0000E+00  0.000E+00  0.000E+00  0.000E+00  1.05708E+03  0.000E+00  1.200E+01  6.000E-02  1.000E+00
   1    8    6     2     5    0.0000E+00  0.0000E+00   0.0000E+00  0.000E+00  0.000E+00  0.000E+00  1.05236E+03  0.000E+00  1.200E+01  6.000E-02  1.000E+00
   1    3    5     3     1    1.5488E+00  2.8252E-01   1.2663E+00  0.000E+00  0.000E+00  0.000E+00  1.07555E+03  1.909E+00  9.636E+00  7.227E-02  1.955E+00
   1    3    6     3     2    1.2663E+00  2.4905E-01   1.0172E+00  0.000E+00  0.000E+00  0.000E+00  1.07264E+03  1.727E+00  8.909E+00  6.682E-02  1.864E+00
   1    3    7     3     3    1.0172E+00  1.9718E-01   8.2007E-01  0.000E+00  0.000E+00  0.000E+00  1.06987E+03  1.555E+00  8.218E+00  5.547E-02  1.777E+00
   1    4    8     3     4    8.2007E-01  2.2567E-01   5.9440E-01  0.000E+00  0.000E+00  0.000E+00  1.06682E+03  1.364E+00  7.455E+00  6.709E-02  1.682E+00
   1    5    8     3     5    5.9440E-01  1.5790E-01   4.3650E-01  0.000E+00  0.000E+00  0.000E+00  1.06362E+03  1.164E+00  6.655E+00  4.991E-02  1.582E+00
   1    6    8     3     6    4.3650E-01  5.5980E-02   3.8052E-01  0.000E+00  0.000E+00  0.000E+00  1.06158E+03  1.036E+00  6.145E+00  1.844E-02  1.518E+00
   1    5   10     4     1    1.0000E+01  9.0919E-02   9.9091E+00  0.000E+00  0.000E+00  0.000E+00  1.07836E+03  6.368E-01  1.000E+01  2.500E-02  1.212E+00
   1    5    9     4     2    9.9091E+00  1.8158E-01   9.7275E+00  0.000E+00  0.000E+00  0.000E+00  1.07154E+03  6.315E-01  1.000E+01  5.000E-02  1.211E+00
   1    6    8     4     3    9.7275E+00  1.2689E-01   9.6006E+00  0.000E+00  0.000E+00  0.000E+00  1.06381E+03  6.256E-01  1.000E+01  3.500E-02  1.209E+00
   1    6    8     5     1    9.9811E+00  2.2027E-01   9.7609E+00  0.000E+00  0.000E+00  0.000E+00  1.05867E+03  6.686E-01  1.501E+01  6.004E-02  1.223E+00
   1    7    7     5     2    9.7609E+00  2.7078E-01   9.4901E+00  0.000E+00  0.000E+00  0.000E+00  1.05416E+03  6.627E-01  1.479E+01  7.393E-02  1.221E+00
   1    8    7     5     3    9.4901E+00  1.8654E-01   9.3035E+00  0.000E+00  0.000E+00  0.000E+00  1.04991E+03  6.571E-01  1.457E+01  5.101E-02  1.219E+00
   1    8    6     5     4    9.3035E+00  1.3175E-01   9.1718E+00  0.000E+00  0.000E+00  0.000E+00  1.04690E+03  6.532E-01  1.443E+01  3.606E-02  1.218E+00
   1    9    6     6     1    9.1718E+00  2.1985E-01   8.9519E+00  0.000E+00  0.000E+00  0.000E+00  1.04339E+03  6.642E-01  1.200E+01  6.000E-02  1.221E+00
   1   10    7     6     2    8.9519E+00  2.1927E-01   8.7327E+00  0.000E+00  0.000E+00  0.000E+00  1.03884E+03  6.545E-01  1.200E+01  6.000E-02  1.218E+00
   1   11    7     6     3    8.7327E+00  2.1868E-01   8.5140E+00  0.000E+00  0.000E+00  0.000E+00  1.03428E+03  6.447E-01  1.200E+01  6.000E-02  1.215E+00
   1   12    7     6     4    8.5140E+00  2.1809E-01   8.2959E+00  0.000E+00  0.000E+00  0.000E+00  1.02973E+03  6.349E-01  1.200E+01  6.000E-02  1.212E+00
   1   13    7     6     5    8.2959E+00 -6.5708E-02   8.3616E+00  0.000E+00  0.000E+00  0.000E+00  1.02654E+03  6.314E-01  1.200E+01  2.400E-01 -9.126E-02
   1   14    9     7     1    1.5000E+02  1.3651E+00   1.4863E+02  0.000E+00  0.000E+00  0.000E+00  1.03987E+03  2.288E+00  5.529E+01  5.593E-01  8.136E-01
   1   13    8     7     2    1.4863E+02  1.9205E+00   1.4671E+02  0.000E+00  0.000E+00  0.000E+00  1.03478E+03  2.279E+00  5.526E+01  6.148E-01  1.041E+00
   1   13    7     7     3    1.4671E+02  1.6052E+00   1.4511E+02  0.000E+00  0.000E+00  0.000E+00  1.02969E+03  2.269E+00  5.521E+01  5.584E-01  9.582E-01
   1   13    6     8     1    1.5347E+02  9.5026E-01   1.5252E+02  0.000E+00  0.000E+00  0.000E+00  1.02471E+03  2.838E+00  4.115E+01  4.193E-01  7.554E-01
   1   13    5     8     2    1.5252E+02  2.1144E-01   1.5231E+02  0.000E+00  0.000E+00  0.000E+00  1.01846E+03  2.834E+00  4.109E+01  4.187E-01  1.683E-01
   1   13    4     8     3    1.5231E+02 -2.3074E+00   1.5462E+02  0.000E+00  0.000E+00  0.000E+00  1.01222E+03  2.841E+00  4.120E+01  4.198E+00 -1.832E-01
   1   13    3     8     4    1.5462E+02 -3.5750E+00   1.5819E+02  0.000E+00  0.000E+00  0.000E+00  1.00599E+03  2.861E+00  4.149E+01  4.228E+00 -2.819E-01
   1   13    2     8     5    1.5819E+02 -2.5597E+00   1.6075E+02  0.000E+00  0.000E+00  0.000E+00  9.99757E+02  2.882E+00  4.179E+01  4.259E+00 -2.003E-01
   1   13    1     8     6    1.6075E+02 -1.9726E+00   1.6272E+02  0.000E+00  0.000E+00  0.000E+00  9.94773E+02  2.898E+00  4.201E+01  2.569E+00 -2.560E-01
   1    8    6     9     1    0.0000E+00  0.0000E+00   0.0000E+00  0.000E+00  0.000E+00  0.000E+00  1.07875E+03  0.000E+00  4.000E+00  0.000E+00  1.000E+00
   1    8    5     9     2    0.0000E+00  0.0000E+00   0.0000E+00  0.000E+00  0.000E+00  0.000E+00  1.07825E+03  0.000E+00  4.000E+00  0.000E+00  1.000E+00



 UBDSV3 SAVING "           GW ET" ON UNIT  61 AT TIME STEP 1, STRESS PERIOD 1
 UBDSV3 SAVING "    UZF RECHARGE" ON UNIT  61 AT TIME STEP 1, STRESS PERIOD 1
 UBDSV3 SAVING " SURFACE LEAKAGE" ON UNIT  61 AT TIME STEP 1, STRESS PERIOD 1
 UBDSV3 SAVING "       HORT+DUNN" ON UNIT  61 AT TIME STEP 1, STRESS PERIOD 1
 UBDSV3 SAVING "  STORAGE CHANGE" ON UNIT  61 AT TIME STEP 1, STRESS PERIOD 1


UNSATURATED ZONE PACKAGE VOLUMETRIC BUDGET FOR  TIME STEP     1 STRESS PERIOD    1
  ------------------------------------------------------------------------------



     CUMULATIVE VOLUMES      L**3       RATES FOR THIS TIME STEP      L**3/T
     ------------------                 ------------------------

           IN:                                      IN:
           ---                                      ---
        INFILTRATION =       73224.0000          INFILTRATION =           0.8475

          OUT:                                     OUT:
          ----                                     ----
              UZF ET =       0.0000E+00                UZF ET =       0.0000E+00
        UZF RECHARGE =       73224.0000          UZF RECHARGE =           0.8475

            IN - OUT =       0.0000E+00              IN - OUT =       0.0000E+00

          STORAGE:                                 STORAGE:
          --------                                 --------
      STORAGE CHANGE =       0.0000E+00        STORAGE CHANGE =       0.0000E+00

 PERCENT DISCREPANCY IS DIFFERENCE BETWEEN IN-OUT MINUS CHANGE IN STORAGE
 DIVIDED BY THE AVERAGE OF IN AND OUT TIMES 100

 PERCENT DISCREPANCY =           0.00     PERCENT DISCREPANCY =           0.00






 

            AG WELLS      PERIOD    1   STEP   1
 AG WELL      1   LAYER   1   ROW     6   COL     4   RATE     0.00000    
 AG WELL      2   LAYER   1   ROW     6   COL     5   RATE     0.00000    
 AG WELL      3   LAYER   1   ROW     7   COL     4   RATE     0.00000    
 AG WELL      4   LAYER   1   ROW     7   COL     5   RATE     0.00000    
 AG WELL      5   LAYER   1   ROW     8   COL     4   RATE     0.00000    
 AG WELL      6   LAYER   1   ROW     8   COL     5   RATE     0.00000    
 
 

   DIVERSION SEGMENTS     PERIOD    1   STEP   1
 
 

        SW IRRIGATION     PERIOD    1   STEP   1
 
 

        GW IRRIGATION     PERIOD    1   STEP   1
 
1
  VOLUMETRIC BUDGET FOR AGRICULTURAL FIELDS AT  END OF TIME STEP    1, STRESS PERIOD   1
  ------------------------------------------------------------------------------

     CUMULATIVE VOLUMES      L**3       RATES FOR THIS TIME STEP      L**3/T
     ------------------                 ------------------------

           IN:                                      IN:
           ---                                      ---
               AG WELLS  =           0.0000                 AG WELLS  =           0.0000
      DIVERSION SEGMENTS =           0.0000        DIVERSION SEGMENTS =           0.0000
       IRRIGATION PONDS  =           0.0000         IRRIGATION PONDS  =           0.0000
           GW IRRIGATION =           0.0000             GW IRRIGATION =           0.0000
           SW IRRIGATION =           0.0000             SW IRRIGATION =           0.0000
        SYSTEM LOSSES GW =           0.0000          SYSTEM LOSSES GW =           0.0000
        SYSTEM LOSSES SW =           0.0000          SYSTEM LOSSES SW =           0.0000

                TOTAL IN =           0.0000                  TOTAL IN =           0.0000

          OUT:                                     OUT:
          ----                                     ----
               AG WELLS  =           0.0000                 AG WELLS  =           0.0000
      DIVERSION SEGMENTS =           0.0000        DIVERSION SEGMENTS =           0.0000
       IRRIGATION PONDS  =           0.0000         IRRIGATION PONDS  =           0.0000
           GW IRRIGATION =           0.0000             GW IRRIGATION =           0.0000
           SW IRRIGATION =           0.0000             SW IRRIGATION =           0.0000
        SYSTEM LOSSES GW =           0.0000          SYSTEM LOSSES GW =           0.0000
        SYSTEM LOSSES SW =           0.0000          SYSTEM LOSSES SW =           0.0000

               TOTAL OUT =           0.0000                 TOTAL OUT =           0.0000

                IN - OUT =           0.0000                  IN - OUT =           0.0000

     PERCENT DISCREPANCY =           0.00         PERCENT DISCREPANCY =           0.00



1
              HEAD IN LAYER 1 AT END OF TIME STEP 1 IN STRESS PERIOD 1
  ---------------------------------------------------------------------------

           1       2       3       4       5       6       7       8       9      10
 ...................................................................................
   1  1029.26 1028.37 6999.00 6999.00 6999.00 6999.00 6999.00 6999.00 6999.00 6999.00
   2  1028.45 1027.36 1026.88 6999.00 6999.00 1028.30 1028.48 1028.46 6999.00 6999.00
   3  6999.00 1026.66 1026.39 1026.21 1026.77 1027.48 1028.04 1028.04 6999.00 6999.00
   4  1026.25 1026.11 1025.89 1025.72 1025.72 1025.86 1026.44 1027.58 1027.34 6999.00
   5  1025.90 1025.50 1025.30 1025.20 1025.26 1025.43 1025.71 1026.26 1026.91 1027.46
   6  1025.46 1024.92 1024.71 1024.66 1024.75 1024.99 1025.37 1025.92 1026.38 1027.29
   7  1025.06 1024.16 1023.99 1024.01 1024.15 1024.46 1024.94 1025.38 1025.92 6999.00
   8  6999.00 1023.02 1023.05 1023.19 1023.40 1023.81 1024.28 1024.92 1025.60 6999.00
   9  6999.00 1021.31 1021.62 1022.06 1022.44 1023.05 1023.57 1024.31 1025.54 6999.00
  10  6999.00 1018.82 1019.57 1020.57 1021.33 1022.32 1023.23 1024.33 1025.99 1026.64
  11  6999.00 1014.68 1016.10 1018.53 1020.11 1021.81 1023.34 1025.18 1027.44 6999.00
  12  1001.77 1007.67 1011.76 1015.60 1018.78 1021.71 1024.22 1027.74 1030.81 6999.00
  13   995.54 1000.36 1006.83 1012.77 1017.95 1022.45 1026.81 1031.65 1034.50 6999.00
  14  6999.00 1005.73 1008.80 1013.40 1018.06 1022.43 1027.39 1032.95 1037.43 6999.00
  15  6999.00 6999.00 1012.40 1015.08 1018.50 1021.48 6999.00 6999.00 6999.00 6999.00

 HEAD WILL BE SAVED ON UNIT   62 AT END OF TIME STEP    1, STRESS PERIOD    1
1
  VOLUMETRIC BUDGET FOR ENTIRE MODEL AT END OF TIME STEP    1, STRESS PERIOD   1
  ------------------------------------------------------------------------------

     CUMULATIVE VOLUMES      L**3       RATES FOR THIS TIME STEP      L**3/T
     ------------------                 ------------------------

           IN:                                      IN:
           ---                                      ---
             STORAGE     =           0.0000               STORAGE     =           0.0000
       CONSTANT HEAD     =           0.0000         CONSTANT HEAD     =           0.0000
     HEAD DEP BOUNDS     =       24862.0605       HEAD DEP BOUNDS     =           0.2878
      STREAM LEAKAGE     =      832172.8125        STREAM LEAKAGE     =           9.6316
        UZF RECHARGE     =       73223.9531          UZF RECHARGE     =           0.8475
               GW ET     =           0.0000                 GW ET     =           0.0000
     SURFACE LEAKAGE     =           0.0000       SURFACE LEAKAGE     =           0.0000
           AG WELLS      =           0.0000             AG WELLS      =           0.0000

                TOTAL IN =      930258.8125                  TOTAL IN =          10.7669

          OUT:                                     OUT:
          ----                                     ----
             STORAGE     =           0.0000               STORAGE     =           0.0000
       CONSTANT HEAD     =           0.0000         CONSTANT HEAD     =           0.0000
     HEAD DEP BOUNDS     =       24756.7500       HEAD DEP BOUNDS     =           0.2865
      STREAM LEAKAGE     =      905501.8750        STREAM LEAKAGE     =          10.4803
        UZF RECHARGE     =           0.0000          UZF RECHARGE     =           0.0000
               GW ET     =           0.0000                 GW ET     =           0.0000
     SURFACE LEAKAGE     =           0.0000       SURFACE LEAKAGE     =           0.0000
           AG WELLS      =           0.0000             AG WELLS      =           0.0000

               TOTAL OUT =      930258.6250                 TOTAL OUT =          10.7669

                IN - OUT =           0.1875                  IN - OUT =       2.8610E-06

     PERCENT DISCREPANCY =           0.00         PERCENT DISCREPANCY =           0.00






         TIME SUMMARY AT END OF TIME STEP    1 IN STRESS PERIOD    1
                    SECONDS     MINUTES      HOURS       DAYS        YEARS
                    -----------------------------------------------------------
   TIME STEP LENGTH  86400.      1440.0      24.000      1.0000     2.73785E-03
 STRESS PERIOD TIME  86400.      1440.0      24.000      1.0000     2.73785E-03
         TOTAL TIME  86400.      1440.0      24.000      1.0000     2.73785E-03
1
1
                            STRESS PERIOD NO.    2, LENGTH =   2630000.    
                            -----------------------------------------------

                              NUMBER OF TIME STEPS =    30

                               MULTIPLIER FOR DELT =     1.000

                            INITIAL TIME STEP SIZE =   87666.66    

 REUSING NON-PARAMETER GHB CELLS FROM LAST STRESS PERIOD

      2 GHB CELLS

 REUSING STREAM SEGMENT DATA FROM LAST STRESS PERIOD



            AREAL INFILTRATION RATE
 READING ON UNIT   19 WITH FORMAT: (FREE)              

            1           2           3           4           5           6           7           8           9          10
 ........................................................................................................................
   1   1.0000E-10  2.0000E-10   0.000       0.000       0.000       0.000       0.000       0.000       0.000       0.000    
   2   2.0000E-10  1.0000E-10  2.0000E-10   0.000       0.000      8.0000E-10  8.0000E-10  5.0000E-10   0.000       0.000    
   3    0.000      5.0000E-10  1.0000E-10  1.0000E-10  8.0000E-10  8.0000E-10  5.0000E-10  5.0000E-10   0.000       0.000    
   4   8.0000E-10  5.0000E-10  1.0000E-10  1.0000E-10  1.0000E-10  1.0000E-10  1.0000E-10  1.0000E-10  2.0000E-10   0.000    
   5   8.0000E-10  5.0000E-10  1.0000E-10  1.0000E-10  1.0000E-10  1.0000E-10  1.0000E-10  1.0000E-10  1.0000E-10  1.0000E-10
   6   8.0000E-10  5.0000E-10  5.0000E-10  2.0000E-10  2.0000E-10  1.0000E-10  1.0000E-10  1.0000E-10  1.0000E-10  5.0000E-10
   7   8.0000E-10  5.0000E-10  5.0000E-10  2.0000E-10  2.0000E-10  1.0000E-10  1.0000E-10  2.0000E-10  2.0000E-10   0.000    
   8    0.000      5.0000E-10  5.0000E-10  2.0000E-10  2.0000E-10  1.0000E-10  1.0000E-10  2.0000E-10  5.0000E-10   0.000    
   9    0.000      5.0000E-10  5.0000E-10  2.0000E-10  2.0000E-10  1.0000E-10  1.0000E-10  2.0000E-10  5.0000E-10   0.000    
  10    0.000      5.0000E-10  5.0000E-10  2.0000E-10  2.0000E-10  1.0000E-10  1.0000E-10  2.0000E-10  5.0000E-10  8.0000E-10
  11    0.000      1.0000E-10  1.0000E-10  1.0000E-10  1.0000E-10  1.0000E-10  1.0000E-10  2.0000E-10  5.0000E-10   0.000    
  12   1.0000E-10  1.0000E-10  1.0000E-10  1.0000E-10  1.0000E-10  1.0000E-10  1.0000E-10  1.0000E-10  2.0000E-10   0.000    
  13   1.0000E-10  1.0000E-10  2.0000E-10  2.0000E-10  2.0000E-10  2.0000E-10  2.0000E-10  1.0000E-10  1.0000E-10   0.000    
  14    0.000      2.0000E-10  5.0000E-10  5.0000E-10  5.0000E-10  5.0000E-10  5.0000E-10  2.0000E-10  1.0000E-10   0.000    
  15    0.000       0.000      8.0000E-10  8.0000E-10  8.0000E-10  8.0000E-10   0.000       0.000       0.000       0.000    

                  ET RATE =  5.000000E-10

 USING ET EXTINCTION DEPTH FROM PREVIOUS STRESS PERIOD. CURRENT PERIOD IS:       2

 USING EXTINCTION WATER CONTENT FROM PREVIOUS STRESS PERIOD. CURRENT PERIOD IS:       2

 USING AIR ENTRY PRESSURE FROM PREVIOUS STRESS PERIOD. CURRENT PERIOD IS:       2

 USING ROOT PRESSURE HEAD FROM PREVIOUS STRESS PERIOD. CURRENT PERIOD IS:       2

 USING ROOT ACTIVITY FROM PREVIOUS STRESS PERIOD. CURRENT PERIOD IS:       2

 PROCESSING AG STRESS PERIOD DATA

 READING AG STRESS PERIOD DATA

 READING IRRIGATION SEGMENT

 READING IRRIGATION WELL

 READING SUPPLEMENTAL WELL

 NO IRRPOND OR REUSING IRRPOND DATA FROM LAST STRESS PERIOD

 END PROCESSING AG STRESS PERIOD DATA OPTIONS
 
 SOLVING FOR HEAD 
                                                   Max.-Head-Change                         Max.-Flux-Residual
  Residual-Control   Outer-Iter.   Inner-Iter.     Column Row Layer    Maximum-Head-Change  Column Row Layer    Maximum-Flux-Residual          L2-NORM 
          0                 1           2             5    4     1       0.4971666983E-02       5    4    1         0.2692751545E+00      0.5607056842E+00
          0                 2           2             5    4     1      -0.4836091141E-03       5    4    1        -0.2692761862E-01      0.5590529324E-01
          0                 3           1             5    4     1       0.3293196866E-04       5    4    1         0.1884933145E-02      0.3898364406E-02

    ------------------------------------------------
       NWT REQUIRED            3 OUTER ITERATIONS 
       AND A TOTAL OF          5 INNER ITERATIONS.
    ------------------------------------------------

 OUTPUT CONTROL FOR STRESS PERIOD    2   TIME STEP    1
    PRINT BUDGET
    PRINT HEAD FOR ALL LAYERS
    SAVE BUDGET
 UBDSV1 SAVING "         STORAGE" ON UNIT 102 AT TIME STEP 1, STRESS PERIOD 2
 UBDSV2 SAVING "   CONSTANT HEAD" ON UNIT 102 AT TIME STEP 1, STRESS PERIOD 2
 UBDSV1 SAVING "FLOW RIGHT FACE " ON UNIT 102 AT TIME STEP 1, STRESS PERIOD 2
 UBDSV1 SAVING "FLOW FRONT FACE " ON UNIT 102 AT TIME STEP 1, STRESS PERIOD 2

  HEAD DEP BOUNDS   PERIOD    2   STEP     1
 BOUNDARY      1   LAYER   1   ROW    13   COL     1   RATE   -0.286571    
 BOUNDARY      2   LAYER   1   ROW    14   COL     9   RATE    0.287757    



 STREAM LISTING     PERIOD      2   STEP        1

 LAYER ROW COL. STREAM  RCH.  FLOW INTO     FLOW TO   FLOW OUT OF   OVRLND.     DIRECT     STREAM       STREAM     STREAM     STREAM   STREAMBED  STREAMBED
                SEG.NO.  NO.  STRM. RCH.    AQUIFER    STRM. RCH.    RUNOFF     PRECIP       ET          HEAD       DEPTH      WIDTH   CONDCTNC.   GRADIENT

   1    1    1     1     1    8.2500E+00  1.3178E-01   8.1182E+00  0.000E+00  0.000E+00  0.000E+00  1.09389E+03  8.424E-01  7.622E+00  3.430E-02  1.281E+00
   1    2    2     1     2    8.1182E+00  2.0240E-01   7.9158E+00  0.000E+00  0.000E+00  0.000E+00  1.08890E+03  8.367E-01  7.536E+00  5.276E-02  1.279E+00
   1    3    3     1     3    7.9158E+00  1.7099E-01   7.7448E+00  0.000E+00  0.000E+00  0.000E+00  1.08325E+03  8.302E-01  7.440E+00  4.464E-02  1.277E+00
   1    3    4     1     4    7.7448E+00  1.5612E-01   7.5887E+00  0.000E+00  0.000E+00  0.000E+00  1.07823E+03  8.244E-01  7.355E+00  4.082E-02  1.275E+00
   1    4    5     2     1    5.5887E+00  2.7178E-01   5.3169E+00  0.000E+00  0.000E+00  0.000E+00  1.07242E+03  4.843E-01  1.200E+01  7.800E-02  1.161E+00
   1    5    6     2     2    5.3169E+00  2.0828E-01   5.1086E+00  0.000E+00  0.000E+00  0.000E+00  1.06698E+03  4.714E-01  1.200E+01  6.000E-02  1.157E+00
   1    6    6     2     3    5.1086E+00  2.0760E-01   4.9010E+00  0.000E+00  0.000E+00  0.000E+00  1.06225E+03  4.600E-01  1.200E+01  6.000E-02  1.153E+00
   1    7    6     2     4    4.9010E+00  2.0691E-01   4.6941E+00  0.000E+00  0.000E+00  0.000E+00  1.05752E+03  4.485E-01  1.200E+01  6.000E-02  1.149E+00
   1    8    6     2     5    4.6941E+00  2.0621E-01   4.4879E+00  0.000E+00  0.000E+00  0.000E+00  1.05280E+03  4.368E-01  1.200E+01  6.000E-02  1.146E+00
   1    3    5     3     1    2.0000E+00  2.8252E-01   1.7175E+00  0.000E+00  0.000E+00  0.000E+00  1.07555E+03  1.909E+00  9.636E+00  7.227E-02  1.955E+00
   1    3    6     3     2    1.7175E+00  2.4905E-01   1.4684E+00  0.000E+00  0.000E+00  0.000E+00  1.07264E+03  1.727E+00  8.909E+00  6.682E-02  1.864E+00
   1    3    7     3     3    1.4684E+00  1.9718E-01   1.2712E+00  0.000E+00  0.000E+00  0.000E+00  1.06987E+03  1.555E+00  8.218E+00  5.547E-02  1.777E+00
   1    4    8     3     4    1.2712E+00  2.2567E-01   1.0456E+00  0.000E+00  0.000E+00  0.000E+00  1.06682E+03  1.364E+00  7.455E+00  6.709E-02  1.682E+00
   1    5    8     3     5    1.0456E+00  1.5790E-01   8.8768E-01  0.000E+00  0.000E+00  0.000E+00  1.06362E+03  1.164E+00  6.655E+00  4.991E-02  1.582E+00
   1    6    8     3     6    8.8768E-01  5.5980E-02   8.3170E-01  0.000E+00  0.000E+00  0.000E+00  1.06158E+03  1.036E+00  6.145E+00  1.844E-02  1.518E+00
   1    5   10     4     1    1.0000E+01  9.0919E-02   9.9091E+00  0.000E+00  0.000E+00  0.000E+00  1.07836E+03  6.368E-01  1.000E+01  2.500E-02  1.212E+00
   1    5    9     4     2    9.9091E+00  1.8158E-01   9.7275E+00  0.000E+00  0.000E+00  0.000E+00  1.07154E+03  6.315E-01  1.000E+01  5.000E-02  1.211E+00
   1    6    8     4     3    9.7275E+00  1.2689E-01   9.6006E+00  0.000E+00  0.000E+00  0.000E+00  1.06381E+03  6.256E-01  1.000E+01  3.500E-02  1.209E+00
   1    6    8     5     1    1.0432E+01  2.2686E-01   1.0205E+01  0.000E+00  0.000E+00  0.000E+00  1.05868E+03  6.790E-01  1.542E+01  6.166E-02  1.226E+00
   1    7    7     5     2    1.0205E+01  2.7894E-01   9.9265E+00  0.000E+00  0.000E+00  0.000E+00  1.05417E+03  6.732E-01  1.519E+01  7.594E-02  1.224E+00
   1    8    7     5     3    9.9265E+00  1.9221E-01   9.7343E+00  0.000E+00  0.000E+00  0.000E+00  1.04992E+03  6.676E-01  1.497E+01  5.241E-02  1.223E+00
   1    8    6     5     4    9.7343E+00  1.3577E-01   9.5985E+00  0.000E+00  0.000E+00  0.000E+00  1.04691E+03  6.637E-01  1.482E+01  3.706E-02  1.221E+00
   1    9    6     6     1    1.4086E+01  2.3167E-01   1.3855E+01  0.000E+00  0.000E+00  0.000E+00  1.04359E+03  8.612E-01  1.200E+01  6.000E-02  1.287E+00
   1   10    7     6     2    1.3855E+01  2.3116E-01   1.3624E+01  0.000E+00  0.000E+00  0.000E+00  1.03903E+03  8.526E-01  1.200E+01  6.000E-02  1.284E+00
   1   11    7     6     3    1.3624E+01  2.3064E-01   1.3393E+01  0.000E+00  0.000E+00  0.000E+00  1.03448E+03  8.440E-01  1.200E+01  6.000E-02  1.281E+00
   1   12    7     6     4    1.3393E+01  2.3012E-01   1.3163E+01  0.000E+00  0.000E+00  0.000E+00  1.02993E+03  8.353E-01  1.200E+01  6.000E-02  1.278E+00
   1   13    7     6     5    1.3163E+01 -1.7911E-02   1.3181E+01  0.000E+00  0.000E+00  0.000E+00  1.02674E+03  8.313E-01  1.200E+01  2.400E-01 -2.488E-02
   1   14    9     7     1    1.5000E+02  1.3652E+00   1.4863E+02  0.000E+00  0.000E+00  0.000E+00  1.03987E+03  2.288E+00  5.529E+01  5.593E-01  8.136E-01
   1   13    8     7     2    1.4863E+02  1.9205E+00   1.4671E+02  0.000E+00  0.000E+00  0.000E+00  1.03478E+03  2.279E+00  5.526E+01  6.148E-01  1.041E+00
   1   13    7     7     3    1.4671E+02  1.6048E+00   1.4511E+02  0.000E+00  0.000E+00  0.000E+00  1.02969E+03  2.269E+00  5.521E+01  5.584E-01  9.579E-01
   1   13    6     8     1    1.5829E+02  9.7525E-01   1.5732E+02  0.000E+00  0.000E+00  0.000E+00  1.02475E+03  2.871E+00  4.163E+01  4.242E-01  7.663E-01
   1   13    5     8     2    1.5732E+02  2.2782E-01   1.5709E+02  0.000E+00  0.000E+00  0.000E+00  1.01849E+03  2.867E+00  4.157E+01  4.236E-01  1.793E-01
   1   13    4     8     3    1.5709E+02 -2.2030E+00   1.5929E+02  0.000E+00  0.000E+00  0.000E+00  1.01225E+03  2.874E+00  4.167E+01  4.246E+00 -1.729E-01
   1   13    3     8     4    1.5929E+02 -3.4860E+00   1.6278E+02  0.000E+00  0.000E+00  0.000E+00  1.00602E+03  2.893E+00  4.195E+01  4.274E+00 -2.718E-01
   1   13    2     8     5    1.6278E+02 -2.4627E+00   1.6524E+02  0.000E+00  0.000E+00  0.000E+00  9.99788E+02  2.913E+00  4.223E+01  4.304E+00 -1.907E-01
   1   13    1     8     6    1.6524E+02 -1.9181E+00   1.6716E+02  0.000E+00  0.000E+00  0.000E+00  9.94802E+02  2.927E+00  4.245E+01  2.595E+00 -2.464E-01
   1    8    6     9     1    0.0000E+00  0.0000E+00   0.0000E+00  0.000E+00  0.000E+00  0.000E+00  1.07875E+03  0.000E+00  4.000E+00  0.000E+00  1.000E+00
   1    8    5     9     2    0.0000E+00  0.0000E+00   0.0000E+00  0.000E+00  0.000E+00  0.000E+00  1.07825E+03  0.000E+00  4.000E+00  0.000E+00  1.000E+00



 UBDSV3 SAVING "           GW ET" ON UNIT  61 AT TIME STEP 1, STRESS PERIOD 2
 UBDSV3 SAVING "    UZF RECHARGE" ON UNIT  61 AT TIME STEP 1, STRESS PERIOD 2
 UBDSV3 SAVING " SURFACE LEAKAGE" ON UNIT  61 AT TIME STEP 1, STRESS PERIOD 2
 UBDSV3 SAVING "       HORT+DUNN" ON UNIT  61 AT TIME STEP 1, STRESS PERIOD 2
 UBDSV3 SAVING "  STORAGE CHANGE" ON UNIT  61 AT TIME STEP 1, STRESS PERIOD 2


UNSATURATED ZONE PACKAGE VOLUMETRIC BUDGET FOR  TIME STEP     1 STRESS PERIOD    2
  ------------------------------------------------------------------------------



     CUMULATIVE VOLUMES      L**3       RATES FOR THIS TIME STEP      L**3/T
     ------------------                 ------------------------

           IN:                                      IN:
           ---                                      ---
        INFILTRATION =      147521.4958          INFILTRATION =           0.8475

          OUT:                                     OUT:
          ----                                     ----
              UZF ET =       65735.6246                UZF ET =           0.7498
        UZF RECHARGE =       73224.0000          UZF RECHARGE =       0.0000E+00

            IN - OUT =        8561.8711              IN - OUT =       9.7664E-02

          STORAGE:                                 STORAGE:
          --------                                 --------
      STORAGE CHANGE =        8561.8717        STORAGE CHANGE =       9.7664E-02

 PERCENT DISCREPANCY IS DIFFERENCE BETWEEN IN-OUT MINUS CHANGE IN STORAGE
 DIVIDED BY THE AVERAGE OF IN AND OUT TIMES 100

 PERCENT DISCREPANCY =           0.00     PERCENT DISCREPANCY =           0.00






 

            AG WELLS      PERIOD    2   STEP   1
 AG WELL      1   LAYER   1   ROW     6   COL     4   RATE     0.00000    
 AG WELL      2   LAYER   1   ROW     6   COL     5   RATE     0.00000    
 AG WELL      3   LAYER   1   ROW     7   COL     4   RATE     0.00000    
 AG WELL      4   LAYER   1   ROW     7   COL     5   RATE     0.00000    
 AG WELL      5   LAYER   1   ROW     8   COL     4   RATE     0.00000    
 AG WELL      6   LAYER   1   ROW     8   COL     5   RATE     0.00000    
 
 

   DIVERSION SEGMENTS     PERIOD    2   STEP   1
 
 

        SW IRRIGATION     PERIOD    2   STEP   1
 
 

        GW IRRIGATION     PERIOD    2   STEP   1
 
1
  VOLUMETRIC BUDGET FOR AGRICULTURAL FIELDS AT  END OF TIME STEP    1, STRESS PERIOD   2
  ------------------------------------------------------------------------------

     CUMULATIVE VOLUMES      L**3       RATES FOR THIS TIME STEP      L**3/T
     ------------------                 ------------------------

           IN:                                      IN:
           ---                                      ---
               AG WELLS  =           0.0000                 AG WELLS  =           0.0000
      DIVERSION SEGMENTS =           0.0000        DIVERSION SEGMENTS =           0.0000
       IRRIGATION PONDS  =           0.0000         IRRIGATION PONDS  =           0.0000
           GW IRRIGATION =           0.0000             GW IRRIGATION =           0.0000
           SW IRRIGATION =           0.0000             SW IRRIGATION =           0.0000
        SYSTEM LOSSES GW =           0.0000          SYSTEM LOSSES GW =           0.0000
        SYSTEM LOSSES SW =           0.0000          SYSTEM LOSSES SW =           0.0000

                TOTAL IN =           0.0000                  TOTAL IN =           0.0000

          OUT:                                     OUT:
          ----                                     ----
               AG WELLS  =           0.0000                 AG WELLS  =           0.0000
      DIVERSION SEGMENTS =           0.0000        DIVERSION SEGMENTS =           0.0000
       IRRIGATION PONDS  =           0.0000         IRRIGATION PONDS  =           0.0000
           GW IRRIGATION =           0.0000             GW IRRIGATION =           0.0000
           SW IRRIGATION =           0.0000             SW IRRIGATION =           0.0000
        SYSTEM LOSSES GW =           0.0000          SYSTEM LOSSES GW =           0.0000
        SYSTEM LOSSES SW =           0.0000          SYSTEM LOSSES SW =           0.0000

               TOTAL OUT =           0.0000                 TOTAL OUT =           0.0000

                IN - OUT =           0.0000                  IN - OUT =           0.0000

     PERCENT DISCREPANCY =           0.00         PERCENT DISCREPANCY =           0.00



1
              HEAD IN LAYER 1 AT END OF TIME STEP 1 IN STRESS PERIOD 2
  ---------------------------------------------------------------------------

           1       2       3       4       5       6       7       8       9      10
 ...................................................................................
   1  1029.26 1028.36 6999.00 6999.00 6999.00 6999.00 6999.00 6999.00 6999.00 6999.00
   2  1028.45 1027.36 1026.88 6999.00 6999.00 1028.30 1028.48 1028.46 6999.00 6999.00
   3  6999.00 1026.66 1026.39 1026.21 1026.77 1027.48 1028.04 1028.04 6999.00 6999.00
   4  1026.25 1026.11 1025.89 1025.72 1025.72 1025.86 1026.44 1027.58 1027.34 6999.00
   5  1025.90 1025.50 1025.30 1025.20 1025.26 1025.43 1025.71 1026.26 1026.91 1027.46
   6  1025.46 1024.92 1024.71 1024.66 1024.75 1024.99 1025.37 1025.92 1026.38 1027.29
   7  1025.06 1024.16 1023.99 1024.01 1024.15 1024.46 1024.94 1025.38 1025.92 6999.00
   8  6999.00 1023.02 1023.05 1023.19 1023.40 1023.81 1024.28 1024.92 1025.60 6999.00
   9  6999.00 1021.31 1021.62 1022.06 1022.44 1023.05 1023.57 1024.31 1025.54 6999.00
  10  6999.00 1018.82 1019.57 1020.57 1021.33 1022.32 1023.23 1024.33 1025.99 1026.64
  11  6999.00 1014.68 1016.10 1018.53 1020.11 1021.81 1023.34 1025.18 1027.44 6999.00
  12  1001.77 1007.67 1011.76 1015.60 1018.78 1021.71 1024.22 1027.74 1030.81 6999.00
  13   995.54 1000.36 1006.83 1012.77 1017.95 1022.45 1026.81 1031.65 1034.50 6999.00
  14  6999.00 1005.73 1008.80 1013.40 1018.06 1022.43 1027.39 1032.95 1037.43 6999.00
  15  6999.00 6999.00 1012.40 1015.08 1018.50 1021.48 6999.00 6999.00 6999.00 6999.00
1
  VOLUMETRIC BUDGET FOR ENTIRE MODEL AT END OF TIME STEP    1, STRESS PERIOD   2
  ------------------------------------------------------------------------------

     CUMULATIVE VOLUMES      L**3       RATES FOR THIS TIME STEP      L**3/T
     ------------------                 ------------------------

           IN:                                      IN:
           ---                                      ---
             STORAGE     =       65430.3164               STORAGE     =           0.7464
       CONSTANT HEAD     =           0.0000         CONSTANT HEAD     =           0.0000
     HEAD DEP BOUNDS     =       50088.7578       HEAD DEP BOUNDS     =           0.2878
      STREAM LEAKAGE     =     1812343.5000        STREAM LEAKAGE     =          11.1807
        UZF RECHARGE     =       73223.9531          UZF RECHARGE     =           0.0000
               GW ET     =           0.0000                 GW ET     =           0.0000
     SURFACE LEAKAGE     =           0.0000       SURFACE LEAKAGE     =           0.0000
           AG WELLS      =           0.0000             AG WELLS      =           0.0000

                TOTAL IN =     2001086.6250                  TOTAL IN =          12.2148

          OUT:                                     OUT:
          ----                                     ----
             STORAGE     =      161381.7188               STORAGE     =           1.8409
       CONSTANT HEAD     =           0.0000         CONSTANT HEAD     =           0.0000
     HEAD DEP BOUNDS     =       49879.4922       HEAD DEP BOUNDS     =           0.2866
      STREAM LEAKAGE     =     1789852.2500        STREAM LEAKAGE     =          10.0876
        UZF RECHARGE     =           0.0000          UZF RECHARGE     =           0.0000
               GW ET     =           0.0000                 GW ET     =           0.0000
     SURFACE LEAKAGE     =           0.0000       SURFACE LEAKAGE     =           0.0000
           AG WELLS      =           0.0000             AG WELLS      =           0.0000

               TOTAL OUT =     2001113.5000                 TOTAL OUT =          12.2151

                IN - OUT =         -26.8750                  IN - OUT =      -3.0899E-04

     PERCENT DISCREPANCY =          -0.00         PERCENT DISCREPANCY =          -0.00






         TIME SUMMARY AT END OF TIME STEP    1 IN STRESS PERIOD    2
                    SECONDS     MINUTES      HOURS       DAYS        YEARS
                    -----------------------------------------------------------
   TIME STEP LENGTH  87667.      1461.1      24.352      1.0147     2.77799E-03
 STRESS PERIOD TIME  87667.      1461.1      24.352      1.0147     2.77799E-03
         TOTAL TIME 1.74067E+05  2901.1      48.352      2.0147     5.51584E-03
1
 
 SOLVING FOR HEAD 
                                                   Max.-Head-Change                         Max.-Flux-Residual
  Residual-Control   Outer-Iter.   Inner-Iter.     Column Row Layer    Maximum-Head-Change  Column Row Layer    Maximum-Flux-Residual          L2-NORM 
          0                 1           2             5    4     1       0.4771848972E-02       5    4    1         0.2582580026E+00      0.5403927100E+00
          0                 2           2             5    4     1      -0.4641721424E-03       5    4    1        -0.2582589456E-01      0.5389182994E-01
          0                 3           1             5    4     1       0.3160838451E-04       5    4    1         0.1807812509E-02      0.3758357432E-02

    ------------------------------------------------
       NWT REQUIRED            3 OUTER ITERATIONS 
       AND A TOTAL OF          5 INNER ITERATIONS.
    ------------------------------------------------

 NO OUTPUT CONTROL FOR STRESS PERIOD    2   TIME STEP    2
 
 SOLVING FOR HEAD 
                                                   Max.-Head-Change                         Max.-Flux-Residual
  Residual-Control   Outer-Iter.   Inner-Iter.     Column Row Layer    Maximum-Head-Change  Column Row Layer    Maximum-Flux-Residual          L2-NORM 
          0                 1           2             5    4     1       0.4583646720E-02       5    4    1         0.2478847001E+00      0.5216599898E+00
          0                 2           2             5    4     1      -0.4458650800E-03       5    4    1        -0.2478855632E-01      0.5203527442E-01
          0                 3           1             5    4     1       0.3036174237E-04       5    4    1         0.1735198885E-02      0.3630524544E-02

    ------------------------------------------------
       NWT REQUIRED            3 OUTER ITERATIONS 
       AND A TOTAL OF          5 INNER ITERATIONS.
    ------------------------------------------------

 NO OUTPUT CONTROL FOR STRESS PERIOD    2   TIME STEP    3
 
 SOLVING FOR HEAD 
                                                   Max.-Head-Change                         Max.-Flux-Residual
  Residual-Control   Outer-Iter.   Inner-Iter.     Column Row Layer    Maximum-Head-Change  Column Row Layer    Maximum-Flux-Residual          L2-NORM 
          0                 1           2             5    4     1       0.4406075075E-02       5    4    1         0.2381005740E+00      0.5043754529E+00
          0                 2           2             5    4     1      -0.4285920960E-03       5    4    1        -0.2381013646E-01      0.5032140004E-01
          0                 3           1             5    4     1       0.2918551739E-04       5    4    1         0.1666709508E-02      0.3511994616E-02

    ------------------------------------------------
       NWT REQUIRED            3 OUTER ITERATIONS 
       AND A TOTAL OF          5 INNER ITERATIONS.
    ------------------------------------------------

 NO OUTPUT CONTROL FOR STRESS PERIOD    2   TIME STEP    4
 
 SOLVING FOR HEAD 
                                                   Max.-Head-Change                         Max.-Flux-Residual
  Residual-Control   Outer-Iter.   Inner-Iter.     Column Row Layer    Maximum-Head-Change  Column Row Layer    Maximum-Flux-Residual          L2-NORM 
          0                 1           2             5    4     1       0.4238682351E-02       5    4    1         0.2288807048E+00      0.4884229822E+00
          0                 2           2             5    4     1      -0.4123092549E-03       5    4    1        -0.2288814303E-01      0.4873921614E-01
          0                 3           1             5    4     1       0.2807671779E-04       5    4    1         0.1602170033E-02      0.3392911632E-02

    ------------------------------------------------
       NWT REQUIRED            3 OUTER ITERATIONS 
       AND A TOTAL OF          5 INNER ITERATIONS.
    ------------------------------------------------

 NO OUTPUT CONTROL FOR STRESS PERIOD    2   TIME STEP    5
 
 SOLVING FOR HEAD 
                                                   Max.-Head-Change                         Max.-Flux-Residual
  Residual-Control   Outer-Iter.   Inner-Iter.     Column Row Layer    Maximum-Head-Change  Column Row Layer    Maximum-Flux-Residual          L2-NORM 
          0                 1           2             5    4     1       0.4080580143E-02       5    4    1         0.2201755222E+00      0.4736659221E+00
          0                 2           2             5    4     1      -0.3969301356E-03       5    4    1        -0.2201761885E-01      0.4727557858E-01
          0                 3           1             5    4     1       0.2702945750E-04       5    4    1         0.1541233351E-02      0.3300765421E-02

    ------------------------------------------------
       NWT REQUIRED            3 OUTER ITERATIONS 
       AND A TOTAL OF          5 INNER ITERATIONS.
    ------------------------------------------------

 NO OUTPUT CONTROL FOR STRESS PERIOD    2   TIME STEP    6
 
 SOLVING FOR HEAD 
                                                   Max.-Head-Change                         Max.-Flux-Residual
  Residual-Control   Outer-Iter.   Inner-Iter.     Column Row Layer    Maximum-Head-Change  Column Row Layer    Maximum-Flux-Residual          L2-NORM 
          0                 1           2             5    4     1       0.3931653243E-02       5    4    1         0.2119781797E+00      0.4600304791E+00
          0                 2           2             5    4     1      -0.3824435323E-03       5    4    1        -0.2119787926E-01      0.4592262516E-01
          0                 3           1             5    4     1       0.2604297466E-04       5    4    1         0.1483851616E-02      0.3207116387E-02

    ------------------------------------------------
       NWT REQUIRED            3 OUTER ITERATIONS 
       AND A TOTAL OF          5 INNER ITERATIONS.
    ------------------------------------------------

 NO OUTPUT CONTROL FOR STRESS PERIOD    2   TIME STEP    7
 
 SOLVING FOR HEAD 
                                                   Max.-Head-Change                         Max.-Flux-Residual
  Residual-Control   Outer-Iter.   Inner-Iter.     Column Row Layer    Maximum-Head-Change  Column Row Layer    Maximum-Flux-Residual          L2-NORM 
          0                 1           2             5    4     1       0.3790839309E-02       5    4    1         0.2042304086E+00      0.4474023015E+00
          0                 2           2             5    4     1      -0.3687461059E-03       5    4    1        -0.2042309727E-01      0.4466884337E-01
          0                 3           1             5    4     1       0.2511023157E-04       5    4    1         0.1429616882E-02      0.3120310284E-02

    ------------------------------------------------
       NWT REQUIRED            3 OUTER ITERATIONS 
       AND A TOTAL OF          5 INNER ITERATIONS.
    ------------------------------------------------

 NO OUTPUT CONTROL FOR STRESS PERIOD    2   TIME STEP    8
 
 SOLVING FOR HEAD 
                                                   Max.-Head-Change                         Max.-Flux-Residual
  Residual-Control   Outer-Iter.   Inner-Iter.     Column Row Layer    Maximum-Head-Change  Column Row Layer    Maximum-Flux-Residual          L2-NORM 
          0                 1           2             5    4     1       0.3657864893E-02       5    4    1         0.1969163599E+00      0.4356955857E+00
          0                 2           2             5    4     1      -0.3558112573E-03       5    4    1        -0.1969168798E-01      0.4350630822E-01
          0                 3           1             5    4     1       0.2422941744E-04       5    4    1         0.1378418259E-02      0.3039686718E-02

    ------------------------------------------------
       NWT REQUIRED            3 OUTER ITERATIONS 
       AND A TOTAL OF          5 INNER ITERATIONS.
    ------------------------------------------------

 NO OUTPUT CONTROL FOR STRESS PERIOD    2   TIME STEP    9
 
 SOLVING FOR HEAD 
                                                   Max.-Head-Change                         Max.-Flux-Residual
  Residual-Control   Outer-Iter.   Inner-Iter.     Column Row Layer    Maximum-Head-Change  Column Row Layer    Maximum-Flux-Residual          L2-NORM 
          0                 1           2             5    4     1       0.3532230717E-02       5    4    1         0.1900087762E+00      0.4248478272E+00
          0                 2           2             5    4     1      -0.3435904201E-03       5    4    1        -0.1900092561E-01      0.4242866039E-01
          0                 3           1             5    4     1       0.2339722427E-04       5    4    1         0.1330064901E-02      0.2964939396E-02

    ------------------------------------------------
       NWT REQUIRED            3 OUTER ITERATIONS 
       AND A TOTAL OF          5 INNER ITERATIONS.
    ------------------------------------------------

 NO OUTPUT CONTROL FOR STRESS PERIOD    2   TIME STEP   10
 
 SOLVING FOR HEAD 
                                                   Max.-Head-Change                         Max.-Flux-Residual
  Residual-Control   Outer-Iter.   Inner-Iter.     Column Row Layer    Maximum-Head-Change  Column Row Layer    Maximum-Flux-Residual          L2-NORM 
          0                 1           2             5    4     1       0.3413719549E-02       5    4    1         0.1834948512E+00      0.4147737312E+00
          0                 2           2             5    4     1      -0.3320624627E-03       5    4    1        -0.1834952946E-01      0.4142762597E-01
          0                 3           1             5    4     1       0.2261221430E-04       5    4    1         0.1284467194E-02      0.2895348115E-02

    ------------------------------------------------
       NWT REQUIRED            3 OUTER ITERATIONS 
       AND A TOTAL OF          5 INNER ITERATIONS.
    ------------------------------------------------

 NO OUTPUT CONTROL FOR STRESS PERIOD    2   TIME STEP   11
 
 SOLVING FOR HEAD 
                                                   Max.-Head-Change                         Max.-Flux-Residual
  Residual-Control   Outer-Iter.   Inner-Iter.     Column Row Layer    Maximum-Head-Change  Column Row Layer    Maximum-Flux-Residual          L2-NORM 
          0                 1           2             5    4     1       0.3301408106E-02       5    4    1         0.1773240571E+00      0.4054018072E+00
          0                 2           2             5    4     1      -0.3211375735E-03       5    4    1        -0.1773244669E-01      0.4049650046E-01
          0                 3           1             5    4     1       0.2186827115E-04       5    4    1         0.1241271425E-02      0.2830701333E-02

    ------------------------------------------------
       NWT REQUIRED            3 OUTER ITERATIONS 
       AND A TOTAL OF          5 INNER ITERATIONS.
    ------------------------------------------------

 NO OUTPUT CONTROL FOR STRESS PERIOD    2   TIME STEP   12
 
 SOLVING FOR HEAD 
                                                   Max.-Head-Change                         Max.-Flux-Residual
  Residual-Control   Outer-Iter.   Inner-Iter.     Column Row Layer    Maximum-Head-Change  Column Row Layer    Maximum-Flux-Residual          L2-NORM 
          0                 1           2             5    4     1       0.3195383482E-02       5    4    1         0.1715009160E+00      0.3966854485E+00
          0                 2           2             5    4     1      -0.3108242248E-03       5    4    1        -0.1715012955E-01      0.3962962907E-01
          0                 3           1             5    4     1       0.2116597068E-04       5    4    1         0.1200509218E-02      0.2770761791E-02

    ------------------------------------------------
       NWT REQUIRED            3 OUTER ITERATIONS 
       AND A TOTAL OF          5 INNER ITERATIONS.
    ------------------------------------------------

 NO OUTPUT CONTROL FOR STRESS PERIOD    2   TIME STEP   13
 
 SOLVING FOR HEAD 
                                                   Max.-Head-Change                         Max.-Flux-Residual
  Residual-Control   Outer-Iter.   Inner-Iter.     Column Row Layer    Maximum-Head-Change  Column Row Layer    Maximum-Flux-Residual          L2-NORM 
          0                 1           2             5    4     1       0.3094775330E-02       5    4    1         0.1659775505E+00      0.3885594719E+00
          0                 2           2             5    4     1      -0.3010377553E-03       5    4    1        -0.1659779024E-01      0.3882159722E-01
          0                 3           1             5    4     1       0.2049954915E-04       5    4    1         0.1161845472E-02      0.2714249324E-02

    ------------------------------------------------
       NWT REQUIRED            3 OUTER ITERATIONS 
       AND A TOTAL OF          5 INNER ITERATIONS.
    ------------------------------------------------

 NO OUTPUT CONTROL FOR STRESS PERIOD    2   TIME STEP   14
 
 SOLVING FOR HEAD 
                                                   Max.-Head-Change                         Max.-Flux-Residual
  Residual-Control   Outer-Iter.   Inner-Iter.     Column Row Layer    Maximum-Head-Change  Column Row Layer    Maximum-Flux-Residual          L2-NORM 
          0                 1           2             5    4     1       0.2999970605E-02       5    4    1         0.1607742615E+00      0.3809929272E+00
          0                 2           2             5    4     1      -0.2918158043E-03       5    4    1        -0.1607745879E-01      0.3806886619E-01
          0                 3           1             5    4     1       0.1987156976E-04       5    4    1         0.1125422302E-02      0.2661632049E-02

    ------------------------------------------------
       NWT REQUIRED            3 OUTER ITERATIONS 
       AND A TOTAL OF          5 INNER ITERATIONS.
    ------------------------------------------------

 NO OUTPUT CONTROL FOR STRESS PERIOD    2   TIME STEP   15
 
 SOLVING FOR HEAD 
                                                   Max.-Head-Change                         Max.-Flux-Residual
  Residual-Control   Outer-Iter.   Inner-Iter.     Column Row Layer    Maximum-Head-Change  Column Row Layer    Maximum-Flux-Residual          L2-NORM 
          0                 1           2             5    4     1       0.2909894133E-02       5    4    1         0.1558326278E+00      0.3739168287E+00
          0                 2           2             5    4     1      -0.2830537859E-03       5    4    1        -0.1558329309E-01      0.3736461672E-01
          0                 3           1             5    4     1       0.1927490911E-04       5    4    1         0.1090830688E-02      0.2613132679E-02

    ------------------------------------------------
       NWT REQUIRED            3 OUTER ITERATIONS 
       AND A TOTAL OF          5 INNER ITERATIONS.
    ------------------------------------------------

 NO OUTPUT CONTROL FOR STRESS PERIOD    2   TIME STEP   16
 
 SOLVING FOR HEAD 
                                                   Max.-Head-Change                         Max.-Flux-Residual
  Residual-Control   Outer-Iter.   Inner-Iter.     Column Row Layer    Maximum-Head-Change  Column Row Layer    Maximum-Flux-Residual          L2-NORM 
          0                 1           2             5    4     1       0.2824734863E-02       5    4    1         0.1511623075E+00      0.3673111807E+00
          0                 2           2             5    4     1      -0.2747700809E-03       5    4    1        -0.1511625894E-01      0.3670736776E-01
          0                 3           1             5    4     1       0.1871082037E-04       5    4    1         0.1058138327E-02      0.2567288440E-02

    ------------------------------------------------
       NWT REQUIRED            3 OUTER ITERATIONS 
       AND A TOTAL OF          5 INNER ITERATIONS.
    ------------------------------------------------

 NO OUTPUT CONTROL FOR STRESS PERIOD    2   TIME STEP   17
 
 SOLVING FOR HEAD 
                                                   Max.-Head-Change                         Max.-Flux-Residual
  Residual-Control   Outer-Iter.   Inner-Iter.     Column Row Layer    Maximum-Head-Change  Column Row Layer    Maximum-Flux-Residual          L2-NORM 
          0                 1           2             5    4     1       0.2743946426E-02       5    4    1         0.1467338546E+00      0.3611127105E+00
          0                 2           2             5    4     1      -0.2669115403E-03       5    4    1        -0.1467341169E-01      0.3609011799E-01
          0                 3           1             5    4     1       0.1817568341E-04       5    4    1         0.1027139001E-02      0.2524367373E-02

    ------------------------------------------------
       NWT REQUIRED            3 OUTER ITERATIONS 
       AND A TOTAL OF          5 INNER ITERATIONS.
    ------------------------------------------------

 NO OUTPUT CONTROL FOR STRESS PERIOD    2   TIME STEP   18
 
 SOLVING FOR HEAD 
                                                   Max.-Head-Change                         Max.-Flux-Residual
  Residual-Control   Outer-Iter.   Inner-Iter.     Column Row Layer    Maximum-Head-Change  Column Row Layer    Maximum-Flux-Residual          L2-NORM 
          0                 1           2             5    4     1       0.2667268038E-02       5    4    1         0.1425320216E+00      0.3553068421E+00
          0                 2           2             5    4     1      -0.2594527984E-03       5    4    1        -0.1425322661E-01      0.3551211763E-01
          0                 3           1             5    4     1       0.1766777121E-04       5    4    1         0.9977260584E-03      0.2484188808E-02

    ------------------------------------------------
       NWT REQUIRED            3 OUTER ITERATIONS 
       AND A TOTAL OF          5 INNER ITERATIONS.
    ------------------------------------------------

 NO OUTPUT CONTROL FOR STRESS PERIOD    2   TIME STEP   19
 
 SOLVING FOR HEAD 
                                                   Max.-Head-Change                         Max.-Flux-Residual
  Residual-Control   Outer-Iter.   Inner-Iter.     Column Row Layer    Maximum-Head-Change  Column Row Layer    Maximum-Flux-Residual          L2-NORM 
          0                 1           2             5    4     1       0.2594683983E-02       5    4    1         0.1385563688E+00      0.3498585297E+00
          0                 2           2             5    4     1      -0.2523923255E-03       5    4    1        -0.1385565966E-01      0.3496833284E-01
          0                 3           1             5    4     1       0.1718698058E-04       5    4    1         0.9698963991E-03      0.2445351596E-02

    ------------------------------------------------
       NWT REQUIRED            3 OUTER ITERATIONS 
       AND A TOTAL OF          5 INNER ITERATIONS.
    ------------------------------------------------

 NO OUTPUT CONTROL FOR STRESS PERIOD    2   TIME STEP   20
 
 SOLVING FOR HEAD 
                                                   Max.-Head-Change                         Max.-Flux-Residual
  Residual-Control   Outer-Iter.   Inner-Iter.     Column Row Layer    Maximum-Head-Change  Column Row Layer    Maximum-Flux-Residual          L2-NORM 
          0                 1           2             5    4     1       0.2525710428E-02       5    4    1         0.1347799189E+00      0.3447336484E+00
          0                 2           2             5    4     1      -0.2456830574E-03       5    4    1        -0.1347801315E-01      0.3445875249E-01
          0                 3           1             5    4     1       0.1673010484E-04       5    4    1         0.9434611266E-03      0.2410794725E-02

    ------------------------------------------------
       NWT REQUIRED            3 OUTER ITERATIONS 
       AND A TOTAL OF          5 INNER ITERATIONS.
    ------------------------------------------------

 NO OUTPUT CONTROL FOR STRESS PERIOD    2   TIME STEP   21
 
 SOLVING FOR HEAD 
                                                   Max.-Head-Change                         Max.-Flux-Residual
  Residual-Control   Outer-Iter.   Inner-Iter.     Column Row Layer    Maximum-Head-Change  Column Row Layer    Maximum-Flux-Residual          L2-NORM 
          0                 1           2             5    4     1       0.2460369807E-02       5    4    1         0.1312037485E+00      0.3399137436E+00
          0                 2           2             5    4     1      -0.2393271763E-03       5    4    1        -0.1312039469E-01      0.3397841903E-01
          0                 3           1             5    4     1       0.1629729380E-04       5    4    1         0.9184278483E-03      0.2377583566E-02

    ------------------------------------------------
       NWT REQUIRED            3 OUTER ITERATIONS 
       AND A TOTAL OF          5 INNER ITERATIONS.
    ------------------------------------------------

 NO OUTPUT CONTROL FOR STRESS PERIOD    2   TIME STEP   22
 
 SOLVING FOR HEAD 
                                                   Max.-Head-Change                         Max.-Flux-Residual
  Residual-Control   Outer-Iter.   Inner-Iter.     Column Row Layer    Maximum-Head-Change  Column Row Layer    Maximum-Flux-Residual          L2-NORM 
          0                 1           2             5    4     1       0.2398203638E-02       5    4    1         0.1278028582E+00      0.3353733925E+00
          0                 2           2             5    4     1      -0.2332800849E-03       5    4    1        -0.1278030441E-01      0.3352588491E-01
          0                 3           1             5    4     1       0.1588550929E-04       5    4    1         0.8946215098E-03      0.2345842616E-02

    ------------------------------------------------
       NWT REQUIRED            3 OUTER ITERATIONS 
       AND A TOTAL OF          5 INNER ITERATIONS.
    ------------------------------------------------

 NO OUTPUT CONTROL FOR STRESS PERIOD    2   TIME STEP   23
 
 SOLVING FOR HEAD 
                                                   Max.-Head-Change                         Max.-Flux-Residual
  Residual-Control   Outer-Iter.   Inner-Iter.     Column Row Layer    Maximum-Head-Change  Column Row Layer    Maximum-Flux-Residual          L2-NORM 
          0                 1           2             5    4     1       0.2339267583E-02       5    4    1         0.1245796846E+00      0.3310885162E+00
          0                 2           2             5    4     1      -0.2275471971E-03       5    4    1        -0.1245798585E-01      0.3309845574E-01
          0                 3           1             5    4     1       0.1549512170E-04       5    4    1         0.8720592259E-03      0.2315908254E-02

    ------------------------------------------------
       NWT REQUIRED            3 OUTER ITERATIONS 
       AND A TOTAL OF          5 INNER ITERATIONS.
    ------------------------------------------------

 NO OUTPUT CONTROL FOR STRESS PERIOD    2   TIME STEP   24
 
 SOLVING FOR HEAD 
                                                   Max.-Head-Change                         Max.-Flux-Residual
  Residual-Control   Outer-Iter.   Inner-Iter.     Column Row Layer    Maximum-Head-Change  Column Row Layer    Maximum-Flux-Residual          L2-NORM 
          0                 1           2             5    4     1       0.2283365807E-02       5    4    1         0.1215238963E+00      0.3270408967E+00
          0                 2           2             5    4     1      -0.2221094624E-03       5    4    1        -0.1215240592E-01      0.3269504380E-01
          0                 3           1             5    4     1       0.1512483216E-04       5    4    1         0.8506686040E-03      0.2287850386E-02

    ------------------------------------------------
       NWT REQUIRED            3 OUTER ITERATIONS 
       AND A TOTAL OF          5 INNER ITERATIONS.
    ------------------------------------------------

 NO OUTPUT CONTROL FOR STRESS PERIOD    2   TIME STEP   25
 
 SOLVING FOR HEAD 
                                                   Max.-Head-Change                         Max.-Flux-Residual
  Residual-Control   Outer-Iter.   Inner-Iter.     Column Row Layer    Maximum-Head-Change  Column Row Layer    Maximum-Flux-Residual          L2-NORM 
          0                 1           2             5    4     1       0.2230079956E-02       5    4    1         0.1186123939E+00      0.3232037394E+00
          0                 2           2             5    4     1      -0.2169261876E-03       5    4    1        -0.1186125467E-01      0.3231219780E-01
          0                 3           1             5    4     1       0.1477187090E-04       5    4    1         0.8302880278E-03      0.2261059292E-02

    ------------------------------------------------
       NWT REQUIRED            3 OUTER ITERATIONS 
       AND A TOTAL OF          5 INNER ITERATIONS.
    ------------------------------------------------

 NO OUTPUT CONTROL FOR STRESS PERIOD    2   TIME STEP   26
 
 SOLVING FOR HEAD 
                                                   Max.-Head-Change                         Max.-Flux-Residual
  Residual-Control   Outer-Iter.   Inner-Iter.     Column Row Layer    Maximum-Head-Change  Column Row Layer    Maximum-Flux-Residual          L2-NORM 
          0                 1           2             5    4     1       0.2179256467E-02       5    4    1         0.1158365227E+00      0.3195661986E+00
          0                 2           2             5    4     1      -0.2119824347E-03       5    4    1        -0.1158366662E-01      0.3194947110E-01
          0                 3           1             5    4     1       0.1443522021E-04       5    4    1         0.8108568682E-03      0.2235822811E-02

    ------------------------------------------------
       NWT REQUIRED            3 OUTER ITERATIONS 
       AND A TOTAL OF          5 INNER ITERATIONS.
    ------------------------------------------------

 NO OUTPUT CONTROL FOR STRESS PERIOD    2   TIME STEP   27
 
 SOLVING FOR HEAD 
                                                   Max.-Head-Change                         Max.-Flux-Residual
  Residual-Control   Outer-Iter.   Inner-Iter.     Column Row Layer    Maximum-Head-Change  Column Row Layer    Maximum-Flux-Residual          L2-NORM 
          0                 1           2             5    4     1       0.2131225178E-02       5    4    1         0.1132144844E+00      0.3161253532E+00
          0                 2           2             5    4     1      -0.2073102874E-03       5    4    1        -0.1132146191E-01      0.3160618070E-01
          0                 3           1             5    4     1       0.1411706530E-04       5    4    1         0.7925025466E-03      0.2211837125E-02

    ------------------------------------------------
       NWT REQUIRED            3 OUTER ITERATIONS 
       AND A TOTAL OF          5 INNER ITERATIONS.
    ------------------------------------------------

 NO OUTPUT CONTROL FOR STRESS PERIOD    2   TIME STEP   28
 
 SOLVING FOR HEAD 
                                                   Max.-Head-Change                         Max.-Flux-Residual
  Residual-Control   Outer-Iter.   Inner-Iter.     Column Row Layer    Maximum-Head-Change  Column Row Layer    Maximum-Flux-Residual          L2-NORM 
          0                 1           2             5    4     1       0.2085111186E-02       5    4    1         0.1106979714E+00      0.3128358781E+00
          0                 2           2             5    4     1      -0.2028246414E-03       5    4    1        -0.1106980979E-01      0.3126961232E-01
          0                 3           1             5    4     1       0.1381160981E-04       5    4    1         0.7748868925E-03      0.2188488445E-02

    ------------------------------------------------
       NWT REQUIRED            3 OUTER ITERATIONS 
       AND A TOTAL OF          5 INNER ITERATIONS.
    ------------------------------------------------

 NO OUTPUT CONTROL FOR STRESS PERIOD    2   TIME STEP   29
 
 SOLVING FOR HEAD 
                                                   Max.-Head-Change                         Max.-Flux-Residual
  Residual-Control   Outer-Iter.   Inner-Iter.     Column Row Layer    Maximum-Head-Change  Column Row Layer    Maximum-Flux-Residual          L2-NORM 
          0                 1           2             5    4     1       0.2041517159E-02       5    4    1         0.1083201129E+00      0.3097361249E+00
          0                 2           2             5    4     1      -0.1985841212E-03       5    4    1        -0.1083202321E-01      0.3096861902E-01
          0                 3           1             5    4     1       0.1352284664E-04       5    4    1         0.7582418393E-03      0.2167336039E-02

    ------------------------------------------------
       NWT REQUIRED            3 OUTER ITERATIONS 
       AND A TOTAL OF          5 INNER ITERATIONS.
    ------------------------------------------------

 NO OUTPUT CONTROL FOR STRESS PERIOD    2   TIME STEP   30



 STREAM LISTING     PERIOD      2   STEP       30

 LAYER ROW COL. STREAM  RCH.  FLOW INTO     FLOW TO   FLOW OUT OF   OVRLND.     DIRECT     STREAM       STREAM     STREAM     STREAM   STREAMBED  STREAMBED
                SEG.NO.  NO.  STRM. RCH.    AQUIFER    STRM. RCH.    RUNOFF     PRECIP       ET          HEAD       DEPTH      WIDTH   CONDCTNC.   GRADIENT

   1    1    1     1     1    8.2500E+00  1.3178E-01   8.1182E+00  0.000E+00  0.000E+00  0.000E+00  1.09389E+03  8.424E-01  7.622E+00  3.430E-02  1.281E+00
   1    2    2     1     2    8.1182E+00  2.0240E-01   7.9158E+00  0.000E+00  0.000E+00  0.000E+00  1.08890E+03  8.367E-01  7.536E+00  5.276E-02  1.279E+00
   1    3    3     1     3    7.9158E+00  1.7099E-01   7.7448E+00  0.000E+00  0.000E+00  0.000E+00  1.08325E+03  8.302E-01  7.440E+00  4.464E-02  1.277E+00
   1    3    4     1     4    7.7448E+00  1.5612E-01   7.5887E+00  0.000E+00  0.000E+00  0.000E+00  1.07823E+03  8.244E-01  7.355E+00  4.082E-02  1.275E+00
   1    4    5     2     1    5.5887E+00  2.7178E-01   5.3169E+00  0.000E+00  0.000E+00  0.000E+00  1.07242E+03  4.843E-01  1.200E+01  7.800E-02  1.161E+00
   1    5    6     2     2    5.3169E+00  2.0828E-01   5.1087E+00  0.000E+00  0.000E+00  0.000E+00  1.06698E+03  4.714E-01  1.200E+01  6.000E-02  1.157E+00
   1    6    6     2     3    5.1087E+00  2.0760E-01   4.9010E+00  0.000E+00  0.000E+00  0.000E+00  1.06225E+03  4.600E-01  1.200E+01  6.000E-02  1.153E+00
   1    7    6     2     4    4.9010E+00  2.0691E-01   4.6941E+00  0.000E+00  0.000E+00  0.000E+00  1.05752E+03  4.485E-01  1.200E+01  6.000E-02  1.149E+00
   1    8    6     2     5    4.6941E+00  2.0621E-01   4.4879E+00  0.000E+00  0.000E+00  0.000E+00  1.05280E+03  4.368E-01  1.200E+01  6.000E-02  1.146E+00
   1    3    5     3     1    2.0000E+00  2.8252E-01   1.7175E+00  0.000E+00  0.000E+00  0.000E+00  1.07555E+03  1.909E+00  9.636E+00  7.227E-02  1.955E+00
   1    3    6     3     2    1.7175E+00  2.4905E-01   1.4684E+00  0.000E+00  0.000E+00  0.000E+00  1.07264E+03  1.727E+00  8.909E+00  6.682E-02  1.864E+00
   1    3    7     3     3    1.4684E+00  1.9718E-01   1.2712E+00  0.000E+00  0.000E+00  0.000E+00  1.06987E+03  1.555E+00  8.218E+00  5.547E-02  1.777E+00
   1    4    8     3     4    1.2712E+00  2.2567E-01   1.0456E+00  0.000E+00  0.000E+00  0.000E+00  1.06682E+03  1.364E+00  7.455E+00  6.709E-02  1.682E+00
   1    5    8     3     5    1.0456E+00  1.5790E-01   8.8768E-01  0.000E+00  0.000E+00  0.000E+00  1.06362E+03  1.164E+00  6.655E+00  4.991E-02  1.582E+00
   1    6    8     3     6    8.8768E-01  5.5980E-02   8.3170E-01  0.000E+00  0.000E+00  0.000E+00  1.06158E+03  1.036E+00  6.145E+00  1.844E-02  1.518E+00
   1    5   10     4     1    1.0000E+01  9.0919E-02   9.9091E+00  0.000E+00  0.000E+00  0.000E+00  1.07836E+03  6.368E-01  1.000E+01  2.500E-02  1.212E+00
   1    5    9     4     2    9.9091E+00  1.8158E-01   9.7275E+00  0.000E+00  0.000E+00  0.000E+00  1.07154E+03  6.315E-01  1.000E+01  5.000E-02  1.211E+00
   1    6    8     4     3    9.7275E+00  1.2689E-01   9.6006E+00  0.000E+00  0.000E+00  0.000E+00  1.06381E+03  6.256E-01  1.000E+01  3.500E-02  1.209E+00
   1    6    8     5     1    1.0432E+01  2.2686E-01   1.0205E+01  0.000E+00  0.000E+00  0.000E+00  1.05868E+03  6.790E-01  1.542E+01  6.166E-02  1.226E+00
   1    7    7     5     2    1.0205E+01  2.7894E-01   9.9265E+00  0.000E+00  0.000E+00  0.000E+00  1.05417E+03  6.732E-01  1.519E+01  7.594E-02  1.224E+00
   1    8    7     5     3    9.9265E+00  1.9221E-01   9.7343E+00  0.000E+00  0.000E+00  0.000E+00  1.04992E+03  6.676E-01  1.497E+01  5.241E-02  1.223E+00
   1    8    6     5     4    9.7343E+00  1.3577E-01   9.5985E+00  0.000E+00  0.000E+00  0.000E+00  1.04691E+03  6.637E-01  1.482E+01  3.706E-02  1.221E+00
   1    9    6     6     1    1.4086E+01  2.3167E-01   1.3855E+01  0.000E+00  0.000E+00  0.000E+00  1.04359E+03  8.612E-01  1.200E+01  6.000E-02  1.287E+00
   1   10    7     6     2    1.3855E+01  2.3116E-01   1.3624E+01  0.000E+00  0.000E+00  0.000E+00  1.03903E+03  8.526E-01  1.200E+01  6.000E-02  1.284E+00
   1   11    7     6     3    1.3624E+01  2.3064E-01   1.3393E+01  0.000E+00  0.000E+00  0.000E+00  1.03448E+03  8.440E-01  1.200E+01  6.000E-02  1.281E+00
   1   12    7     6     4    1.3393E+01  2.3012E-01   1.3163E+01  0.000E+00  0.000E+00  0.000E+00  1.02993E+03  8.353E-01  1.200E+01  6.000E-02  1.278E+00
   1   13    7     6     5    1.3163E+01 -2.0977E-02   1.3184E+01  0.000E+00  0.000E+00  0.000E+00  1.02674E+03  8.314E-01  1.200E+01  2.400E-01 -2.913E-02
   1   14    9     7     1    1.5000E+02  1.3658E+00   1.4863E+02  0.000E+00  0.000E+00  0.000E+00  1.03987E+03  2.288E+00  5.529E+01  5.593E-01  8.140E-01
   1   13    8     7     2    1.4863E+02  1.9203E+00   1.4671E+02  0.000E+00  0.000E+00  0.000E+00  1.03478E+03  2.279E+00  5.526E+01  6.148E-01  1.041E+00
   1   13    7     7     3    1.4671E+02  1.5976E+00   1.4512E+02  0.000E+00  0.000E+00  0.000E+00  1.02969E+03  2.270E+00  5.521E+01  5.584E-01  9.537E-01
   1   13    6     8     1    1.5830E+02  9.7214E-01   1.5733E+02  0.000E+00  0.000E+00  0.000E+00  1.02475E+03  2.871E+00  4.163E+01  4.242E-01  7.639E-01
   1   13    5     8     2    1.5733E+02  2.2507E-01   1.5710E+02  0.000E+00  0.000E+00  0.000E+00  1.01849E+03  2.867E+00  4.157E+01  4.236E-01  1.771E-01
   1   13    4     8     3    1.5710E+02 -2.2709E+00   1.5937E+02  0.000E+00  0.000E+00  0.000E+00  1.01225E+03  2.874E+00  4.167E+01  4.246E+00 -1.783E-01
   1   13    3     8     4    1.5937E+02 -3.5514E+00   1.6293E+02  0.000E+00  0.000E+00  0.000E+00  1.00602E+03  2.894E+00  4.196E+01  4.276E+00 -2.769E-01
   1   13    2     8     5    1.6293E+02 -2.5395E+00   1.6546E+02  0.000E+00  0.000E+00  0.000E+00  9.99789E+02  2.914E+00  4.225E+01  4.306E+00 -1.966E-01
   1   13    1     8     6    1.6546E+02 -1.9547E+00   1.6742E+02  0.000E+00  0.000E+00  0.000E+00  9.94804E+02  2.929E+00  4.247E+01  2.597E+00 -2.509E-01
   1    8    6     9     1    0.0000E+00  0.0000E+00   0.0000E+00  0.000E+00  0.000E+00  0.000E+00  1.07875E+03  0.000E+00  4.000E+00  0.000E+00  1.000E+00
   1    8    5     9     2    0.0000E+00  0.0000E+00   0.0000E+00  0.000E+00  0.000E+00  0.000E+00  1.07825E+03  0.000E+00  4.000E+00  0.000E+00  1.000E+00





UNSATURATED ZONE PACKAGE VOLUMETRIC BUDGET FOR  TIME STEP    30 STRESS PERIOD    2
  ------------------------------------------------------------------------------



     CUMULATIVE VOLUMES      L**3       RATES FOR THIS TIME STEP      L**3/T
     ------------------                 ------------------------

           IN:                                      IN:
           ---                                      ---
        INFILTRATION =     2302148.8727          INFILTRATION =           0.8475

          OUT:                                     OUT:
          ----                                     ----
              UZF ET =     1972484.1157                UZF ET =           0.7500
        UZF RECHARGE =       73224.0000          UZF RECHARGE =       0.0000E+00

            IN - OUT =      256440.7570              IN - OUT =       9.7500E-02

          STORAGE:                                 STORAGE:
          --------                                 --------
      STORAGE CHANGE =      256440.7784        STORAGE CHANGE =       9.7500E-02

 PERCENT DISCREPANCY IS DIFFERENCE BETWEEN IN-OUT MINUS CHANGE IN STORAGE
 DIVIDED BY THE AVERAGE OF IN AND OUT TIMES 100

 PERCENT DISCREPANCY =          -0.00     PERCENT DISCREPANCY =           0.00






1
  VOLUMETRIC BUDGET FOR AGRICULTURAL FIELDS AT  END OF TIME STEP   30, STRESS PERIOD   2
  ------------------------------------------------------------------------------

     CUMULATIVE VOLUMES      L**3       RATES FOR THIS TIME STEP      L**3/T
     ------------------                 ------------------------

           IN:                                      IN:
           ---                                      ---
               AG WELLS  =           0.0000                 AG WELLS  =           0.0000
      DIVERSION SEGMENTS =           0.0000        DIVERSION SEGMENTS =           0.0000
       IRRIGATION PONDS  =           0.0000         IRRIGATION PONDS  =           0.0000
           GW IRRIGATION =           0.0000             GW IRRIGATION =           0.0000
           SW IRRIGATION =           0.0000             SW IRRIGATION =           0.0000
        SYSTEM LOSSES GW =           0.0000          SYSTEM LOSSES GW =           0.0000
        SYSTEM LOSSES SW =           0.0000          SYSTEM LOSSES SW =           0.0000

                TOTAL IN =           0.0000                  TOTAL IN =           0.0000

          OUT:                                     OUT:
          ----                                     ----
               AG WELLS  =           0.0000                 AG WELLS  =           0.0000
      DIVERSION SEGMENTS =           0.0000        DIVERSION SEGMENTS =           0.0000
       IRRIGATION PONDS  =           0.0000         IRRIGATION PONDS  =           0.0000
           GW IRRIGATION =           0.0000             GW IRRIGATION =           0.0000
           SW IRRIGATION =           0.0000             SW IRRIGATION =           0.0000
        SYSTEM LOSSES GW =           0.0000          SYSTEM LOSSES GW =           0.0000
        SYSTEM LOSSES SW =           0.0000          SYSTEM LOSSES SW =           0.0000

               TOTAL OUT =           0.0000                 TOTAL OUT =           0.0000

                IN - OUT =           0.0000                  IN - OUT =           0.0000

     PERCENT DISCREPANCY =           0.00         PERCENT DISCREPANCY =           0.00



1
  VOLUMETRIC BUDGET FOR ENTIRE MODEL AT END OF TIME STEP   30, STRESS PERIOD   2
  ------------------------------------------------------------------------------

     CUMULATIVE VOLUMES      L**3       RATES FOR THIS TIME STEP      L**3/T
     ------------------                 ------------------------

           IN:                                      IN:
           ---                                      ---
             STORAGE     =     1698293.6250               STORAGE     =           0.5858
       CONSTANT HEAD     =           0.0000         CONSTANT HEAD     =           0.0000
     HEAD DEP BOUNDS     =      781723.8750       HEAD DEP BOUNDS     =           0.2878
      STREAM LEAKAGE     =    30218964.0000        STREAM LEAKAGE     =          11.1681
        UZF RECHARGE     =       73223.9531          UZF RECHARGE     =           0.0000
               GW ET     =           0.0000                 GW ET     =           0.0000
     SURFACE LEAKAGE     =           0.0000       SURFACE LEAKAGE     =           0.0000
           AG WELLS      =           0.0000             AG WELLS      =           0.0000

                TOTAL IN =    32772206.0000                  TOTAL IN =          12.0417

          OUT:                                     OUT:
          ----                                     ----
             STORAGE     =     4124338.5000               STORAGE     =           1.4173
       CONSTANT HEAD     =           0.0000         CONSTANT HEAD     =           0.0000
     HEAD DEP BOUNDS     =      779352.1875       HEAD DEP BOUNDS     =           0.2872
      STREAM LEAKAGE     =    27869198.0000        STREAM LEAKAGE     =          10.3374
        UZF RECHARGE     =           0.0000          UZF RECHARGE     =           0.0000
               GW ET     =           0.0000                 GW ET     =           0.0000
     SURFACE LEAKAGE     =           0.0000       SURFACE LEAKAGE     =           0.0000
           AG WELLS      =           0.0000             AG WELLS      =           0.0000

               TOTAL OUT =    32772888.0000                 TOTAL OUT =          12.0419

                IN - OUT =        -682.0000                  IN - OUT =      -2.3365E-04

     PERCENT DISCREPANCY =          -0.00         PERCENT DISCREPANCY =          -0.00






         TIME SUMMARY AT END OF TIME STEP   30 IN STRESS PERIOD    2
                    SECONDS     MINUTES      HOURS       DAYS        YEARS
                    -----------------------------------------------------------
   TIME STEP LENGTH  87667.      1461.1      24.352      1.0147     2.77799E-03
 STRESS PERIOD TIME 2.63000E+06  43833.      730.56      30.440     8.33397E-02
         TOTAL TIME 2.71640E+06  45273.      754.56      31.440     8.60775E-02
1
1
                            STRESS PERIOD NO.    3, LENGTH =   2630000.    
                            -----------------------------------------------

                              NUMBER OF TIME STEPS =    30

                               MULTIPLIER FOR DELT =     1.000

                            INITIAL TIME STEP SIZE =   87666.66    

 REUSING NON-PARAMETER GHB CELLS FROM LAST STRESS PERIOD

      2 GHB CELLS

 REUSING STREAM SEGMENT DATA FROM LAST STRESS PERIOD



            AREAL INFILTRATION RATE
 READING ON UNIT   19 WITH FORMAT: (FREE)              

            1           2           3           4           5           6           7           8           9          10
 ........................................................................................................................
   1   1.0000E-10  2.0000E-10   0.000       0.000       0.000       0.000       0.000       0.000       0.000       0.000    
   2   2.0000E-10  1.0000E-10  2.0000E-10   0.000       0.000      8.0000E-10  8.0000E-10  5.0000E-10   0.000       0.000    
   3    0.000      5.0000E-10  1.0000E-10  1.0000E-10  8.0000E-10  8.0000E-10  5.0000E-10  5.0000E-10   0.000       0.000    
   4   8.0000E-10  5.0000E-10  1.0000E-10  1.0000E-10  1.0000E-10  1.0000E-10  1.0000E-10  1.0000E-10  2.0000E-10   0.000    
   5   8.0000E-10  5.0000E-10  1.0000E-10  1.0000E-10  1.0000E-10  1.0000E-10  1.0000E-10  1.0000E-10  1.0000E-10  1.0000E-10
   6   8.0000E-10  5.0000E-10  5.0000E-10  2.0000E-10  2.0000E-10  1.0000E-10  1.0000E-10  1.0000E-10  1.0000E-10  5.0000E-10
   7   8.0000E-10  5.0000E-10  5.0000E-10  2.0000E-10  2.0000E-10  1.0000E-10  1.0000E-10  2.0000E-10  2.0000E-10   0.000    
   8    0.000      5.0000E-10  5.0000E-10  2.0000E-10  2.0000E-10  1.0000E-10  1.0000E-10  2.0000E-10  5.0000E-10   0.000    
   9    0.000      5.0000E-10  5.0000E-10  2.0000E-10  2.0000E-10  1.0000E-10  1.0000E-10  2.0000E-10  5.0000E-10   0.000    
  10    0.000      5.0000E-10  5.0000E-10  2.0000E-10  2.0000E-10  1.0000E-10  1.0000E-10  2.0000E-10  5.0000E-10  8.0000E-10
  11    0.000      1.0000E-10  1.0000E-10  1.0000E-10  1.0000E-10  1.0000E-10  1.0000E-10  2.0000E-10  5.0000E-10   0.000    
  12   1.0000E-10  1.0000E-10  1.0000E-10  1.0000E-10  1.0000E-10  1.0000E-10  1.0000E-10  1.0000E-10  2.0000E-10   0.000    
  13   1.0000E-10  1.0000E-10  2.0000E-10  2.0000E-10  2.0000E-10  2.0000E-10  2.0000E-10  1.0000E-10  1.0000E-10   0.000    
  14    0.000      2.0000E-10  5.0000E-10  5.0000E-10  5.0000E-10  5.0000E-10  5.0000E-10  2.0000E-10  1.0000E-10   0.000    
  15    0.000       0.000      8.0000E-10  8.0000E-10  8.0000E-10  8.0000E-10   0.000       0.000       0.000       0.000    

                  ET RATE =  5.000000E-10

 USING ET EXTINCTION DEPTH FROM PREVIOUS STRESS PERIOD. CURRENT PERIOD IS:       3

 USING EXTINCTION WATER CONTENT FROM PREVIOUS STRESS PERIOD. CURRENT PERIOD IS:       3

 USING AIR ENTRY PRESSURE FROM PREVIOUS STRESS PERIOD. CURRENT PERIOD IS:       3

 USING ROOT PRESSURE HEAD FROM PREVIOUS STRESS PERIOD. CURRENT PERIOD IS:       3

 USING ROOT ACTIVITY FROM PREVIOUS STRESS PERIOD. CURRENT PERIOD IS:       3

 PROCESSING AG STRESS PERIOD DATA

 READING AG STRESS PERIOD DATA

 READING IRRIGATION SEGMENT

 READING IRRIGATION WELL

 READING SUPPLEMENTAL WELL

 NO IRRPOND OR REUSING IRRPOND DATA FROM LAST STRESS PERIOD

 END PROCESSING AG STRESS PERIOD DATA OPTIONS
 
 SOLVING FOR HEAD 
                                                   Max.-Head-Change                         Max.-Flux-Residual
  Residual-Control   Outer-Iter.   Inner-Iter.     Column Row Layer    Maximum-Head-Change  Column Row Layer    Maximum-Flux-Residual          L2-NORM 
          0                 1           2             2    2     1       0.2525011411E-02       2    2    1         0.1319005140E+00      0.4039561933E+00
          0                 2           2             2    2     1      -0.2456150180E-03       2    2    1        -0.1319006884E-01      0.4182159887E-01
          0                 3           1             2    2     1       0.1672546959E-04       2    2    1         0.9233050496E-03      0.2911421437E-02

    ------------------------------------------------
       NWT REQUIRED            3 OUTER ITERATIONS 
       AND A TOTAL OF          5 INNER ITERATIONS.
    ------------------------------------------------

 NO OUTPUT CONTROL FOR STRESS PERIOD    3   TIME STEP    1
 
 SOLVING FOR HEAD 
                                                   Max.-Head-Change                         Max.-Flux-Residual
  Residual-Control   Outer-Iter.   Inner-Iter.     Column Row Layer    Maximum-Head-Change  Column Row Layer    Maximum-Flux-Residual          L2-NORM 
          0                 1           2             2    2     1       0.3324146315E-02       2    2    1         0.1736569715E+00      0.5146740245E+00
          0                 2           2             2    2     1      -0.3233492521E-03       2    2    1        -0.1736572779E-01      0.5101962438E-01
          0                 3           1             2    2     1       0.2201888056E-04       2    2    1         0.1215601175E-02      0.3529567416E-02

    ------------------------------------------------
       NWT REQUIRED            3 OUTER ITERATIONS 
       AND A TOTAL OF          5 INNER ITERATIONS.
    ------------------------------------------------

 NO OUTPUT CONTROL FOR STRESS PERIOD    3   TIME STEP    2
 
 SOLVING FOR HEAD 
                                                   Max.-Head-Change                         Max.-Flux-Residual
  Residual-Control   Outer-Iter.   Inner-Iter.     Column Row Layer    Maximum-Head-Change  Column Row Layer    Maximum-Flux-Residual          L2-NORM 
          0                 1           2             2    2     1       0.3301481187E-02       2    2    1         0.1724651378E+00      0.4998431502E+00
          0                 2           2             2    2     1      -0.3211445445E-03       2    2    1        -0.1724654384E-01      0.4958841579E-01
          0                 3           1             2    2     1       0.2186874900E-04       2    2    1         0.1207258316E-02      0.3434975045E-02

    ------------------------------------------------
       NWT REQUIRED            3 OUTER ITERATIONS 
       AND A TOTAL OF          5 INNER ITERATIONS.
    ------------------------------------------------

 NO OUTPUT CONTROL FOR STRESS PERIOD    3   TIME STEP    3
 
 SOLVING FOR HEAD 
                                                   Max.-Head-Change                         Max.-Flux-Residual
  Residual-Control   Outer-Iter.   Inner-Iter.     Column Row Layer    Maximum-Head-Change  Column Row Layer    Maximum-Flux-Residual          L2-NORM 
          0                 1           2             2    2     1       0.3279132530E-02       2    2    1         0.1712899746E+00      0.4865714415E+00
          0                 2           2             2    2     1      -0.3189706211E-03       2    2    1        -0.1712902696E-01      0.4830920447E-01
          0                 3           1             2    2     1       0.2172071247E-04       2    2    1         0.1199032129E-02      0.3349699057E-02

    ------------------------------------------------
       NWT REQUIRED            3 OUTER ITERATIONS 
       AND A TOTAL OF          5 INNER ITERATIONS.
    ------------------------------------------------

 NO OUTPUT CONTROL FOR STRESS PERIOD    3   TIME STEP    4
 
 SOLVING FOR HEAD 
                                                   Max.-Head-Change                         Max.-Flux-Residual
  Residual-Control   Outer-Iter.   Inner-Iter.     Column Row Layer    Maximum-Head-Change  Column Row Layer    Maximum-Flux-Residual          L2-NORM 
          0                 1           2             2    2     1       0.3257010826E-02       2    2    1         0.1701267847E+00      0.4746970453E+00
          0                 2           2             2    2     1      -0.3168187745E-03       2    2    1        -0.1701270743E-01      0.4716339850E-01
          0                 3           1             2    2     1       0.2157417976E-04       2    2    1         0.1190889771E-02      0.3273677861E-02

    ------------------------------------------------
       NWT REQUIRED            3 OUTER ITERATIONS 
       AND A TOTAL OF          5 INNER ITERATIONS.
    ------------------------------------------------

 NO OUTPUT CONTROL FOR STRESS PERIOD    3   TIME STEP    5
 
 SOLVING FOR HEAD 
                                                   Max.-Head-Change                         Max.-Flux-Residual
  Residual-Control   Outer-Iter.   Inner-Iter.     Column Row Layer    Maximum-Head-Change  Column Row Layer    Maximum-Flux-Residual          L2-NORM 
          0                 1           2             2    2     1       0.3235281548E-02       2    2    1         0.1689842331E+00      0.4640266983E+00
          0                 2           2             2    2     1      -0.3147050999E-03       2    2    1        -0.1689845172E-01      0.4613353853E-01
          0                 3           1             2    2     1       0.2143024668E-04       2    2    1         0.1182891873E-02      0.3204532040E-02

    ------------------------------------------------
       NWT REQUIRED            3 OUTER ITERATIONS 
       AND A TOTAL OF          5 INNER ITERATIONS.
    ------------------------------------------------

 NO OUTPUT CONTROL FOR STRESS PERIOD    3   TIME STEP    6
 
 SOLVING FOR HEAD 
                                                   Max.-Head-Change                         Max.-Flux-Residual
  Residual-Control   Outer-Iter.   Inner-Iter.     Column Row Layer    Maximum-Head-Change  Column Row Layer    Maximum-Flux-Residual          L2-NORM 
          0                 1           2             2    2     1       0.3213769433E-02       2    2    1         0.1678531571E+00      0.4544395855E+00
          0                 2           2             2    2     1      -0.3126125494E-03       2    2    1        -0.1678534359E-01      0.4520747157E-01
          0                 3           1             2    2     1       0.2128775162E-04       2    2    1         0.1174974290E-02      0.3143063201E-02

    ------------------------------------------------
       NWT REQUIRED            3 OUTER ITERATIONS 
       AND A TOTAL OF          5 INNER ITERATIONS.
    ------------------------------------------------

 NO OUTPUT CONTROL FOR STRESS PERIOD    3   TIME STEP    7
 
 SOLVING FOR HEAD 
                                                   Max.-Head-Change                         Max.-Flux-Residual
  Residual-Control   Outer-Iter.   Inner-Iter.     Column Row Layer    Maximum-Head-Change  Column Row Layer    Maximum-Flux-Residual          L2-NORM 
          0                 1           2             2    2     1       0.3192555266E-02       2    2    1         0.1667377764E+00      0.4457928585E+00
          0                 2           2             2    2     1      -0.3105489813E-03       2    2    1        -0.1667380498E-01      0.4437158309E-01
          0                 3           1             2    2     1       0.2114723041E-04       2    2    1         0.1167166594E-02      0.3087357644E-02

    ------------------------------------------------
       NWT REQUIRED            3 OUTER ITERATIONS 
       AND A TOTAL OF          5 INNER ITERATIONS.
    ------------------------------------------------

 NO OUTPUT CONTROL FOR STRESS PERIOD    3   TIME STEP    8
 
 SOLVING FOR HEAD 
                                                   Max.-Head-Change                         Max.-Flux-Residual
  Residual-Control   Outer-Iter.   Inner-Iter.     Column Row Layer    Maximum-Head-Change  Column Row Layer    Maximum-Flux-Residual          L2-NORM 
          0                 1           2             2    2     1       0.3171549517E-02       2    2    1         0.1656334081E+00      0.4379819802E+00
          0                 2           2             2    2     1      -0.3085056880E-03       2    2    1        -0.1656336768E-01      0.4361541002E-01
          0                 3           1             2    2     1       0.2100809020E-04       2    2    1         0.1159436005E-02      0.3036359595E-02

    ------------------------------------------------
       NWT REQUIRED            3 OUTER ITERATIONS 
       AND A TOTAL OF          5 INNER ITERATIONS.
    ------------------------------------------------

 NO OUTPUT CONTROL FOR STRESS PERIOD    3   TIME STEP    9
 
 SOLVING FOR HEAD 
                                                   Max.-Head-Change                         Max.-Flux-Residual
  Residual-Control   Outer-Iter.   Inner-Iter.     Column Row Layer    Maximum-Head-Change  Column Row Layer    Maximum-Flux-Residual          L2-NORM 
          0                 1           2             2    2     1       0.3150918695E-02       2    2    1         0.1645487178E+00      0.4309014827E+00
          0                 2           2             2    2     1      -0.3064988638E-03       2    2    1        -0.1645489814E-01      0.4292972511E-01
          0                 3           1             2    2     1       0.2087143268E-04       2    2    1         0.1151843134E-02      0.2990577417E-02

    ------------------------------------------------
       NWT REQUIRED            3 OUTER ITERATIONS 
       AND A TOTAL OF          5 INNER ITERATIONS.
    ------------------------------------------------

 NO OUTPUT CONTROL FOR STRESS PERIOD    3   TIME STEP   10
 
 SOLVING FOR HEAD 
                                                   Max.-Head-Change                         Max.-Flux-Residual
  Residual-Control   Outer-Iter.   Inner-Iter.     Column Row Layer    Maximum-Head-Change  Column Row Layer    Maximum-Flux-Residual          L2-NORM 
          0                 1           2             2    2     1       0.3130487481E-02       2    2    1         0.1634745952E+00      0.4244589616E+00
          0                 2           2             2    2     1      -0.3045114568E-03       2    2    1        -0.1634748542E-01      0.4230618474E-01
          0                 3           1             2    2     1       0.2073609746E-04       2    2    1         0.1144324234E-02      0.2950700135E-02

    ------------------------------------------------
       NWT REQUIRED            3 OUTER ITERATIONS 
       AND A TOTAL OF          5 INNER ITERATIONS.
    ------------------------------------------------

 NO OUTPUT CONTROL FOR STRESS PERIOD    3   TIME STEP   11
 
 SOLVING FOR HEAD 
                                                   Max.-Head-Change                         Max.-Flux-Residual
  Residual-Control   Outer-Iter.   Inner-Iter.     Column Row Layer    Maximum-Head-Change  Column Row Layer    Maximum-Flux-Residual          L2-NORM 
          0                 1           2             2    2     1       0.3110422235E-02       2    2    1         0.1624196942E+00      0.4185889498E+00
          0                 2           2             2    2     1      -0.3025596483E-03       2    2    1        -0.1624199484E-01      0.4173531306E-01
          0                 3           1             2    2     1       0.2060318672E-04       2    2    1         0.1136939903E-02      0.2910143635E-02

    ------------------------------------------------
       NWT REQUIRED            3 OUTER ITERATIONS 
       AND A TOTAL OF          5 INNER ITERATIONS.
    ------------------------------------------------

 NO OUTPUT CONTROL FOR STRESS PERIOD    3   TIME STEP   12
 
 SOLVING FOR HEAD 
                                                   Max.-Head-Change                         Max.-Flux-Residual
  Residual-Control   Outer-Iter.   Inner-Iter.     Column Row Layer    Maximum-Head-Change  Column Row Layer    Maximum-Flux-Residual          L2-NORM 
          0                 1           2             2    2     1       0.3090548088E-02       2    2    1         0.1613748959E+00      0.4132170316E+00
          0                 2           2             2    2     1      -0.3006264288E-03       2    2    1        -0.1613751454E-01      0.4121298117E-01
          0                 3           1             2    2     1       0.2047154171E-04       2    2    1         0.1129626278E-02      0.2874902546E-02

    ------------------------------------------------
       NWT REQUIRED            3 OUTER ITERATIONS 
       AND A TOTAL OF          5 INNER ITERATIONS.
    ------------------------------------------------

 NO OUTPUT CONTROL FOR STRESS PERIOD    3   TIME STEP   13
 
 SOLVING FOR HEAD 
                                                   Max.-Head-Change                         Max.-Flux-Residual
  Residual-Control   Outer-Iter.   Inner-Iter.     Column Row Layer    Maximum-Head-Change  Column Row Layer    Maximum-Flux-Residual          L2-NORM 
          0                 1           2             2    2     1       0.3070946317E-02       2    2    1         0.1603444421E+00      0.4082878673E+00
          0                 2           2             2    2     1      -0.2987197035E-03       2    2    1        -0.1603446870E-01      0.4073324610E-01
          0                 3           1             2    2     1       0.2034170062E-04       2    2    1         0.1122413053E-02      0.2842694245E-02

    ------------------------------------------------
       NWT REQUIRED            3 OUTER ITERATIONS 
       AND A TOTAL OF          5 INNER ITERATIONS.
    ------------------------------------------------

 NO OUTPUT CONTROL FOR STRESS PERIOD    3   TIME STEP   14
 
 SOLVING FOR HEAD 
                                                   Max.-Head-Change                         Max.-Flux-Residual
  Residual-Control   Outer-Iter.   Inner-Iter.     Column Row Layer    Maximum-Head-Change  Column Row Layer    Maximum-Flux-Residual          L2-NORM 
          0                 1           2             2    2     1       0.3051612636E-02       2    2    1         0.1593281106E+00      0.4037431457E+00
          0                 2           2             2    2     1      -0.2968390570E-03       2    2    1        -0.1593283511E-01      0.4029055032E-01
          0                 3           1             2    2     1       0.2021363553E-04       2    2    1         0.1115298705E-02      0.2812722266E-02

    ------------------------------------------------
       NWT REQUIRED            3 OUTER ITERATIONS 
       AND A TOTAL OF          5 INNER ITERATIONS.
    ------------------------------------------------

 NO OUTPUT CONTROL FOR STRESS PERIOD    3   TIME STEP   15
 
 SOLVING FOR HEAD 
                                                   Max.-Head-Change                         Max.-Flux-Residual
  Residual-Control   Outer-Iter.   Inner-Iter.     Column Row Layer    Maximum-Head-Change  Column Row Layer    Maximum-Flux-Residual          L2-NORM 
          0                 1           2             2    2     1       0.3032543282E-02       2    2    1         0.1583256794E+00      0.3995412162E+00
          0                 2           2             2    2     1      -0.2949841231E-03       2    2    1        -0.1583259159E-01      0.3988016270E-01
          0                 3           1             2    2     1       0.2008732183E-04       2    2    1         0.1108281673E-02      0.2785617360E-02

    ------------------------------------------------
       NWT REQUIRED            3 OUTER ITERATIONS 
       AND A TOTAL OF          5 INNER ITERATIONS.
    ------------------------------------------------

 NO OUTPUT CONTROL FOR STRESS PERIOD    3   TIME STEP   16
 
 SOLVING FOR HEAD 
                                                   Max.-Head-Change                         Max.-Flux-Residual
  Residual-Control   Outer-Iter.   Inner-Iter.     Column Row Layer    Maximum-Head-Change  Column Row Layer    Maximum-Flux-Residual          L2-NORM 
          0                 1           2             2    2     1       0.3013648836E-02       2    2    1         0.1573325165E+00      0.3956471881E+00
          0                 2           2             2    2     1      -0.2931462021E-03       2    2    1        -0.1573327488E-01      0.3949641397E-01
          0                 3           1             2    2     1       0.1996216663E-04       2    2    1         0.1101329502E-02      0.2755811634E-02

    ------------------------------------------------
       NWT REQUIRED            3 OUTER ITERATIONS 
       AND A TOTAL OF          5 INNER ITERATIONS.
    ------------------------------------------------

 NO OUTPUT CONTROL FOR STRESS PERIOD    3   TIME STEP   17
 
 SOLVING FOR HEAD 
                                                   Max.-Head-Change                         Max.-Flux-Residual
  Residual-Control   Outer-Iter.   Inner-Iter.     Column Row Layer    Maximum-Head-Change  Column Row Layer    Maximum-Flux-Residual          L2-NORM 
          0                 1           2             2    2     1       0.2995087305E-02       2    2    1         0.1563568164E+00      0.3920193915E+00
          0                 2           2             2    2     1      -0.2913406650E-03       2    2    1        -0.1563570445E-01      0.3914500190E-01
          0                 3           1             2    2     1       0.1983921558E-04       2    2    1         0.1094499563E-02      0.2735207009E-02

    ------------------------------------------------
       NWT REQUIRED            3 OUTER ITERATIONS 
       AND A TOTAL OF          5 INNER ITERATIONS.
    ------------------------------------------------

 NO OUTPUT CONTROL FOR STRESS PERIOD    3   TIME STEP   18
 
 SOLVING FOR HEAD 
                                                   Max.-Head-Change                         Max.-Flux-Residual
  Residual-Control   Outer-Iter.   Inner-Iter.     Column Row Layer    Maximum-Head-Change  Column Row Layer    Maximum-Flux-Residual          L2-NORM 
          0                 1           2             2    2     1       0.2976702302E-02       2    2    1         0.1553904630E+00      0.3886479850E+00
          0                 2           2             2    2     1      -0.2895522996E-03       2    2    1        -0.1553906870E-01      0.3881390928E-01
          0                 3           1             2    2     1       0.1971743511E-04       2    2    1         0.1087735078E-02      0.2712265260E-02

    ------------------------------------------------
       NWT REQUIRED            3 OUTER ITERATIONS 
       AND A TOTAL OF          5 INNER ITERATIONS.
    ------------------------------------------------

 NO OUTPUT CONTROL FOR STRESS PERIOD    3   TIME STEP   19
 
 SOLVING FOR HEAD 
                                                   Max.-Head-Change                         Max.-Flux-Residual
  Residual-Control   Outer-Iter.   Inner-Iter.     Column Row Layer    Maximum-Head-Change  Column Row Layer    Maximum-Flux-Residual          L2-NORM 
          0                 1           2             2    2     1       0.2958566594E-02       2    2    1         0.1544372196E+00      0.3854776506E+00
          0                 2           2             2    2     1      -0.2877881838E-03       2    2    1        -0.1544374397E-01      0.3850338209E-01
          0                 3           1             2    2     1       0.1959730520E-04       2    2    1         0.1081062347E-02      0.2691132282E-02

    ------------------------------------------------
       NWT REQUIRED            3 OUTER ITERATIONS 
       AND A TOTAL OF          5 INNER ITERATIONS.
    ------------------------------------------------

 NO OUTPUT CONTROL FOR STRESS PERIOD    3   TIME STEP   20
 
 SOLVING FOR HEAD 
                                                   Max.-Head-Change                         Max.-Flux-Residual
  Residual-Control   Outer-Iter.   Inner-Iter.     Column Row Layer    Maximum-Head-Change  Column Row Layer    Maximum-Flux-Residual          L2-NORM 
          0                 1           2             2    2     1       0.2940676291E-02       2    2    1         0.1534969020E+00      0.3824967631E+00
          0                 2           2             2    2     1      -0.2860479393E-03       2    2    1        -0.1534971185E-01      0.3821119447E-01
          0                 3           1             2    2     1       0.1947880076E-04       2    2    1         0.1074480083E-02      0.2674487834E-02

    ------------------------------------------------
       NWT REQUIRED            3 OUTER ITERATIONS 
       AND A TOTAL OF          5 INNER ITERATIONS.
    ------------------------------------------------

 NO OUTPUT CONTROL FOR STRESS PERIOD    3   TIME STEP   21
 
 SOLVING FOR HEAD 
                                                   Max.-Head-Change                         Max.-Flux-Residual
  Residual-Control   Outer-Iter.   Inner-Iter.     Column Row Layer    Maximum-Head-Change  Column Row Layer    Maximum-Flux-Residual          L2-NORM 
          0                 1           2             2    2     1       0.2923027634E-02       2    2    1         0.1525693083E+00      0.3797023744E+00
          0                 2           2             2    2     1      -0.2843312006E-03       2    2    1        -0.1525695208E-01      0.3793533718E-01
          0                 3           1             2    2     1       0.1936189766E-04       2    2    1         0.1067986913E-02      0.2652338412E-02

    ------------------------------------------------
       NWT REQUIRED            3 OUTER ITERATIONS 
       AND A TOTAL OF          5 INNER ITERATIONS.
    ------------------------------------------------

 NO OUTPUT CONTROL FOR STRESS PERIOD    3   TIME STEP   22
 
 SOLVING FOR HEAD 
                                                   Max.-Head-Change                         Max.-Flux-Residual
  Residual-Control   Outer-Iter.   Inner-Iter.     Column Row Layer    Maximum-Head-Change  Column Row Layer    Maximum-Flux-Residual          L2-NORM 
          0                 1           2             2    2     1       0.2905616549E-02       2    2    1         0.1516542438E+00      0.3770551376E+00
          0                 2           2             2    2     1      -0.2826375715E-03       2    2    1        -0.1516544528E-01      0.3767442254E-01
          0                 3           1             2    2     1       0.1924656772E-04       2    2    1         0.1061581431E-02      0.2634468838E-02

    ------------------------------------------------
       NWT REQUIRED            3 OUTER ITERATIONS 
       AND A TOTAL OF          5 INNER ITERATIONS.
    ------------------------------------------------

 NO OUTPUT CONTROL FOR STRESS PERIOD    3   TIME STEP   23
 
 SOLVING FOR HEAD 
                                                   Max.-Head-Change                         Max.-Flux-Residual
  Residual-Control   Outer-Iter.   Inner-Iter.     Column Row Layer    Maximum-Head-Change  Column Row Layer    Maximum-Flux-Residual          L2-NORM 
          0                 1           2             2    2     1       0.2888355525E-02       2    2    1         0.1507470597E+00      0.3745452425E+00
          0                 2           2             2    2     1      -0.2809585392E-03       2    2    1        -0.1507472653E-01      0.3742716415E-01
          0                 3           1             2    2     1       0.1913223181E-04       2    2    1         0.1055231121E-02      0.2617556667E-02

    ------------------------------------------------
       NWT REQUIRED            3 OUTER ITERATIONS 
       AND A TOTAL OF          5 INNER ITERATIONS.
    ------------------------------------------------

 NO OUTPUT CONTROL FOR STRESS PERIOD    3   TIME STEP   24
 
 SOLVING FOR HEAD 
                                                   Max.-Head-Change                         Max.-Flux-Residual
  Residual-Control   Outer-Iter.   Inner-Iter.     Column Row Layer    Maximum-Head-Change  Column Row Layer    Maximum-Flux-Residual          L2-NORM 
          0                 1           2             2    2     1       0.2871411094E-02       2    2    1         0.1498565308E+00      0.3721679668E+00
          0                 2           2             2    2     1      -0.2793103026E-03       2    2    1        -0.1498567328E-01      0.3719256404E-01
          0                 3           1             2    2     1       0.1901999306E-04       2    2    1         0.1048997389E-02      0.2601329861E-02

    ------------------------------------------------
       NWT REQUIRED            3 OUTER ITERATIONS 
       AND A TOTAL OF          5 INNER ITERATIONS.
    ------------------------------------------------

 NO OUTPUT CONTROL FOR STRESS PERIOD    3   TIME STEP   25
 
 SOLVING FOR HEAD 
                                                   Max.-Head-Change                         Max.-Flux-Residual
  Residual-Control   Outer-Iter.   Inner-Iter.     Column Row Layer    Maximum-Head-Change  Column Row Layer    Maximum-Flux-Residual          L2-NORM 
          0                 1           2             2    2     1       0.2854608839E-02       2    2    1         0.1489735422E+00      0.3699008647E+00
          0                 2           2             2    2     1      -0.2776758966E-03       2    2    1        -0.1489737409E-01      0.3696848467E-01
          0                 3           1             2    2     1       0.1890869651E-04       2    2    1         0.1042816454E-02      0.2585969685E-02

    ------------------------------------------------
       NWT REQUIRED            3 OUTER ITERATIONS 
       AND A TOTAL OF          5 INNER ITERATIONS.
    ------------------------------------------------

 NO OUTPUT CONTROL FOR STRESS PERIOD    3   TIME STEP   26
 
 SOLVING FOR HEAD 
                                                   Max.-Head-Change                         Max.-Flux-Residual
  Residual-Control   Outer-Iter.   Inner-Iter.     Column Row Layer    Maximum-Head-Change  Column Row Layer    Maximum-Flux-Residual          L2-NORM 
          0                 1           2             2    2     1       0.2838116139E-02       2    2    1         0.1481068002E+00      0.3677398061E+00
          0                 2           2             2    2     1      -0.2760716010E-03       2    2    1        -0.1481069955E-01      0.3675468798E-01
          0                 3           1             2    2     1       0.1879944954E-04       2    2    1         0.1036749217E-02      0.2571080409E-02

    ------------------------------------------------
       NWT REQUIRED            3 OUTER ITERATIONS 
       AND A TOTAL OF          5 INNER ITERATIONS.
    ------------------------------------------------

 NO OUTPUT CONTROL FOR STRESS PERIOD    3   TIME STEP   27
 
 SOLVING FOR HEAD 
                                                   Max.-Head-Change                         Max.-Flux-Residual
  Residual-Control   Outer-Iter.   Inner-Iter.     Column Row Layer    Maximum-Head-Change  Column Row Layer    Maximum-Flux-Residual          L2-NORM 
          0                 1           2             2    2     1       0.2821759410E-02       2    2    1         0.1472472332E+00      0.3656789512E+00
          0                 2           2             2    2     1      -0.2744805327E-03       2    2    1        -0.1472474252E-01      0.3655091365E-01
          0                 3           1             2    2     1       0.1869110407E-04       2    2    1         0.1030732238E-02      0.2557116783E-02

    ------------------------------------------------
       NWT REQUIRED            3 OUTER ITERATIONS 
       AND A TOTAL OF          5 INNER ITERATIONS.
    ------------------------------------------------

 NO OUTPUT CONTROL FOR STRESS PERIOD    3   TIME STEP   28
 
 SOLVING FOR HEAD 
                                                   Max.-Head-Change                         Max.-Flux-Residual
  Residual-Control   Outer-Iter.   Inner-Iter.     Column Row Layer    Maximum-Head-Change  Column Row Layer    Maximum-Flux-Residual          L2-NORM 
          0                 1           2             2    2     1       0.2805620490E-02       2    2    1         0.1463991537E+00      0.3637081530E+00
          0                 2           2             2    2     1      -0.2729106512E-03       2    2    1        -0.1463993426E-01      0.3635564024E-01
          0                 3           1             2    2     1       0.1858420112E-04       2    2    1         0.1024795671E-02      0.2543555090E-02

    ------------------------------------------------
       NWT REQUIRED            3 OUTER ITERATIONS 
       AND A TOTAL OF          5 INNER ITERATIONS.
    ------------------------------------------------

 NO OUTPUT CONTROL FOR STRESS PERIOD    3   TIME STEP   29
 
 SOLVING FOR HEAD 
                                                   Max.-Head-Change                         Max.-Flux-Residual
  Residual-Control   Outer-Iter.   Inner-Iter.     Column Row Layer    Maximum-Head-Change  Column Row Layer    Maximum-Flux-Residual          L2-NORM 
          0                 1           2             4   13     1       0.4709135787E-02       4   13    1         0.2696368487E+00      0.6974160910E+00
          0                 2           2             2    2     1      -0.4535413459E-03       4   13    1        -0.2668066273E-01      0.6881901713E-01
          0                 3           1             2    2     1       0.3088447577E-04       4   13    1         0.1840013495E-02      0.4731378929E-02

    ------------------------------------------------
       NWT REQUIRED            3 OUTER ITERATIONS 
       AND A TOTAL OF          5 INNER ITERATIONS.
    ------------------------------------------------

 NO OUTPUT CONTROL FOR STRESS PERIOD    3   TIME STEP   30



 STREAM LISTING     PERIOD      3   STEP       30

 LAYER ROW COL. STREAM  RCH.  FLOW INTO     FLOW TO   FLOW OUT OF   OVRLND.     DIRECT     STREAM       STREAM     STREAM     STREAM   STREAMBED  STREAMBED
                SEG.NO.  NO.  STRM. RCH.    AQUIFER    STRM. RCH.    RUNOFF     PRECIP       ET          HEAD       DEPTH      WIDTH   CONDCTNC.   GRADIENT

   1    1    1     1     1    2.7188E+01  2.5503E-01   2.6933E+01  0.000E+00  0.000E+00  0.000E+00  1.09426E+03  1.210E+00  1.346E+01  6.058E-02  1.403E+00
   1    2    2     1     2    2.6933E+01  3.9447E-01   2.6539E+01  0.000E+00  0.000E+00  0.000E+00  1.08926E+03  1.205E+00  1.340E+01  9.380E-02  1.402E+00
   1    3    3     1     3    2.6539E+01  3.3594E-01   2.6203E+01  0.000E+00  0.000E+00  0.000E+00  1.08362E+03  1.200E+00  1.333E+01  7.998E-02  1.400E+00
   1    3    4     1     4    2.6203E+01  3.0895E-01   2.5894E+01  0.000E+00  0.000E+00  0.000E+00  1.07860E+03  1.196E+00  1.327E+01  7.364E-02  1.399E+00
   1    4    5     2     1    2.3894E+01  3.2529E-01   2.3568E+01  0.000E+00  0.000E+00  0.000E+00  1.07310E+03  1.170E+00  1.200E+01  7.800E-02  1.390E+00
   1    5    6     2     2    2.3568E+01  2.4971E-01   2.3319E+01  0.000E+00  0.000E+00  0.000E+00  1.06767E+03  1.162E+00  1.200E+01  6.000E-02  1.387E+00
   1    6    6     2     3    2.3319E+01  2.4927E-01   2.3069E+01  0.000E+00  0.000E+00  0.000E+00  1.06295E+03  1.154E+00  1.200E+01  6.000E-02  1.385E+00
   1    7    6     2     4    2.3069E+01  2.4882E-01   2.2821E+01  0.000E+00  0.000E+00  0.000E+00  1.05822E+03  1.147E+00  1.200E+01  6.000E-02  1.382E+00
   1    8    6     2     5    2.2821E+01  2.4837E-01   2.2572E+01  0.000E+00  0.000E+00  0.000E+00  1.05350E+03  1.140E+00  1.200E+01  6.000E-02  1.380E+00
   1    3    5     3     1    2.0000E+00  2.8252E-01   1.7175E+00  0.000E+00  0.000E+00  0.000E+00  1.07555E+03  1.909E+00  9.636E+00  7.227E-02  1.955E+00
   1    3    6     3     2    1.7175E+00  2.4905E-01   1.4684E+00  0.000E+00  0.000E+00  0.000E+00  1.07264E+03  1.727E+00  8.909E+00  6.682E-02  1.864E+00
   1    3    7     3     3    1.4684E+00  1.9718E-01   1.2712E+00  0.000E+00  0.000E+00  0.000E+00  1.06987E+03  1.555E+00  8.218E+00  5.547E-02  1.777E+00
   1    4    8     3     4    1.2712E+00  2.2567E-01   1.0456E+00  0.000E+00  0.000E+00  0.000E+00  1.06682E+03  1.364E+00  7.455E+00  6.709E-02  1.682E+00
   1    5    8     3     5    1.0456E+00  1.5790E-01   8.8768E-01  0.000E+00  0.000E+00  0.000E+00  1.06362E+03  1.164E+00  6.655E+00  4.991E-02  1.582E+00
   1    6    8     3     6    8.8768E-01  5.5980E-02   8.3170E-01  0.000E+00  0.000E+00  0.000E+00  1.06158E+03  1.036E+00  6.145E+00  1.844E-02  1.518E+00
   1    5   10     4     1    1.0000E+01  9.0919E-02   9.9091E+00  0.000E+00  0.000E+00  0.000E+00  1.07836E+03  6.368E-01  1.000E+01  2.500E-02  1.212E+00
   1    5    9     4     2    9.9091E+00  1.8158E-01   9.7275E+00  0.000E+00  0.000E+00  0.000E+00  1.07154E+03  6.315E-01  1.000E+01  5.000E-02  1.211E+00
   1    6    8     4     3    9.7275E+00  1.2689E-01   9.6006E+00  0.000E+00  0.000E+00  0.000E+00  1.06381E+03  6.256E-01  1.000E+01  3.500E-02  1.209E+00
   1    6    8     5     1    1.0432E+01  2.2686E-01   1.0205E+01  0.000E+00  0.000E+00  0.000E+00  1.05868E+03  6.790E-01  1.542E+01  6.166E-02  1.226E+00
   1    7    7     5     2    1.0205E+01  2.7894E-01   9.9265E+00  0.000E+00  0.000E+00  0.000E+00  1.05417E+03  6.732E-01  1.519E+01  7.594E-02  1.224E+00
   1    8    7     5     3    9.9265E+00  1.9221E-01   9.7343E+00  0.000E+00  0.000E+00  0.000E+00  1.04992E+03  6.676E-01  1.497E+01  5.241E-02  1.223E+00
   1    8    6     5     4    9.7343E+00  1.3577E-01   9.5985E+00  0.000E+00  0.000E+00  0.000E+00  1.04691E+03  6.637E-01  1.482E+01  3.706E-02  1.221E+00
   1    9    6     6     1    3.2171E+01  2.6502E-01   3.1906E+01  0.000E+00  0.000E+00  0.000E+00  1.04414E+03  1.417E+00  1.200E+01  6.000E-02  1.472E+00
   1   10    7     6     2    3.1906E+01  2.6460E-01   3.1641E+01  0.000E+00  0.000E+00  0.000E+00  1.03959E+03  1.410E+00  1.200E+01  6.000E-02  1.470E+00
   1   11    7     6     3    3.1641E+01  2.6418E-01   3.1377E+01  0.000E+00  0.000E+00  0.000E+00  1.03504E+03  1.403E+00  1.200E+01  6.000E-02  1.468E+00
   1   12    7     6     4    3.1377E+01  2.6375E-01   3.1113E+01  0.000E+00  0.000E+00  0.000E+00  1.03049E+03  1.396E+00  1.200E+01  6.000E-02  1.465E+00
   1   13    7     6     5    3.1113E+01  1.0995E-02   3.1102E+01  0.000E+00  0.000E+00  0.000E+00  1.02730E+03  1.392E+00  1.200E+01  2.400E-02  1.527E-01
   1   14    9     7     1    1.5000E+02  1.3665E+00   1.4863E+02  0.000E+00  0.000E+00  0.000E+00  1.03987E+03  2.288E+00  5.529E+01  5.593E-01  8.144E-01
   1   13    8     7     2    1.4863E+02  1.9191E+00   1.4671E+02  0.000E+00  0.000E+00  0.000E+00  1.03478E+03  2.279E+00  5.526E+01  6.148E-01  1.041E+00
   1   13    7     7     3    1.4671E+02  1.5891E+00   1.4513E+02  0.000E+00  0.000E+00  0.000E+00  1.02969E+03  2.270E+00  5.521E+01  5.584E-01  9.486E-01
   1   13    6     8     1    1.7623E+02  1.0561E+00   1.7517E+02  0.000E+00  0.000E+00  0.000E+00  1.02486E+03  2.989E+00  4.334E+01  4.416E-01  7.971E-01
   1   13    5     8     2    1.7517E+02  2.7870E-01   1.7489E+02  0.000E+00  0.000E+00  0.000E+00  1.01861E+03  2.985E+00  4.328E+01  4.410E-01  2.106E-01
   1   13    4     8     3    1.7489E+02 -1.9966E+00   1.7689E+02  0.000E+00  0.000E+00  0.000E+00  1.01237E+03  2.990E+00  4.336E+01  4.418E+00 -1.506E-01
   1   13    3     8     4    1.7689E+02 -3.3281E+00   1.8022E+02  0.000E+00  0.000E+00  0.000E+00  1.00613E+03  3.007E+00  4.360E+01  4.443E+00 -2.497E-01
   1   13    2     8     5    1.8022E+02 -2.3039E+00   1.8252E+02  0.000E+00  0.000E+00  0.000E+00  9.99900E+02  3.025E+00  4.386E+01  4.469E+00 -1.718E-01
   1   13    1     8     6    1.8252E+02 -1.8174E+00   1.8434E+02  0.000E+00  0.000E+00  0.000E+00  9.94913E+02  3.038E+00  4.405E+01  2.693E+00 -2.250E-01
   1    8    6     9     1    0.0000E+00  0.0000E+00   0.0000E+00  0.000E+00  0.000E+00  0.000E+00  1.07875E+03  0.000E+00  4.000E+00  0.000E+00  1.000E+00
   1    8    5     9     2    0.0000E+00  0.0000E+00   0.0000E+00  0.000E+00  0.000E+00  0.000E+00  1.07825E+03  0.000E+00  4.000E+00  0.000E+00  1.000E+00





UNSATURATED ZONE PACKAGE VOLUMETRIC BUDGET FOR  TIME STEP    30 STRESS PERIOD    3
  ------------------------------------------------------------------------------



     CUMULATIVE VOLUMES      L**3       RATES FOR THIS TIME STEP      L**3/T
     ------------------                 ------------------------

           IN:                                      IN:
           ---                                      ---
        INFILTRATION =     4531073.7455          INFILTRATION =           0.8475

          OUT:                                     OUT:
          ----                                     ----
              UZF ET =     3944983.9703                UZF ET =           0.7500
        UZF RECHARGE =       73224.0000          UZF RECHARGE =       0.0000E+00

            IN - OUT =      512865.7752              IN - OUT =       9.7500E-02

          STORAGE:                                 STORAGE:
          --------                                 --------
      STORAGE CHANGE =      512865.8194        STORAGE CHANGE =       9.7500E-02

 PERCENT DISCREPANCY IS DIFFERENCE BETWEEN IN-OUT MINUS CHANGE IN STORAGE
 DIVIDED BY THE AVERAGE OF IN AND OUT TIMES 100

 PERCENT DISCREPANCY =          -0.00     PERCENT DISCREPANCY =           0.00






1
  VOLUMETRIC BUDGET FOR AGRICULTURAL FIELDS AT  END OF TIME STEP   30, STRESS PERIOD   3
  ------------------------------------------------------------------------------

     CUMULATIVE VOLUMES      L**3       RATES FOR THIS TIME STEP      L**3/T
     ------------------                 ------------------------

           IN:                                      IN:
           ---                                      ---
               AG WELLS  =           0.0000                 AG WELLS  =           0.0000
      DIVERSION SEGMENTS =           0.0000        DIVERSION SEGMENTS =           0.0000
       IRRIGATION PONDS  =           0.0000         IRRIGATION PONDS  =           0.0000
           GW IRRIGATION =           0.0000             GW IRRIGATION =           0.0000
           SW IRRIGATION =           0.0000             SW IRRIGATION =           0.0000
        SYSTEM LOSSES GW =           0.0000          SYSTEM LOSSES GW =           0.0000
        SYSTEM LOSSES SW =           0.0000          SYSTEM LOSSES SW =           0.0000

                TOTAL IN =           0.0000                  TOTAL IN =           0.0000

          OUT:                                     OUT:
          ----                                     ----
               AG WELLS  =           0.0000                 AG WELLS  =           0.0000
      DIVERSION SEGMENTS =           0.0000        DIVERSION SEGMENTS =           0.0000
       IRRIGATION PONDS  =           0.0000         IRRIGATION PONDS  =           0.0000
           GW IRRIGATION =           0.0000             GW IRRIGATION =           0.0000
           SW IRRIGATION =           0.0000             SW IRRIGATION =           0.0000
        SYSTEM LOSSES GW =           0.0000          SYSTEM LOSSES GW =           0.0000
        SYSTEM LOSSES SW =           0.0000          SYSTEM LOSSES SW =           0.0000

               TOTAL OUT =           0.0000                 TOTAL OUT =           0.0000

                IN - OUT =           0.0000                  IN - OUT =           0.0000

     PERCENT DISCREPANCY =           0.00         PERCENT DISCREPANCY =           0.00



1
  VOLUMETRIC BUDGET FOR ENTIRE MODEL AT END OF TIME STEP   30, STRESS PERIOD   3
  ------------------------------------------------------------------------------

     CUMULATIVE VOLUMES      L**3       RATES FOR THIS TIME STEP      L**3/T
     ------------------                 ------------------------

           IN:                                      IN:
           ---                                      ---
             STORAGE     =     3101464.7500               STORAGE     =           0.4931
       CONSTANT HEAD     =           0.0000         CONSTANT HEAD     =           0.0000
     HEAD DEP BOUNDS     =     1538702.5000       HEAD DEP BOUNDS     =           0.2878
      STREAM LEAKAGE     =    60993760.0000        STREAM LEAKAGE     =          12.2952
        UZF RECHARGE     =       73223.9531          UZF RECHARGE     =           0.0000
               GW ET     =           0.0000                 GW ET     =           0.0000
     SURFACE LEAKAGE     =           0.0000       SURFACE LEAKAGE     =           0.0000
           AG WELLS      =           0.0000             AG WELLS      =           0.0000

                TOTAL IN =    65707152.0000                  TOTAL IN =          13.0762

          OUT:                                     OUT:
          ----                                     ----
             STORAGE     =     9831363.0000               STORAGE     =           3.3427
       CONSTANT HEAD     =           0.0000         CONSTANT HEAD     =           0.0000
     HEAD DEP BOUNDS     =     1536322.6250       HEAD DEP BOUNDS     =           0.2883
      STREAM LEAKAGE     =    54341364.0000        STREAM LEAKAGE     =           9.4460
        UZF RECHARGE     =           0.0000          UZF RECHARGE     =           0.0000
               GW ET     =           0.0000                 GW ET     =           0.0000
     SURFACE LEAKAGE     =           0.0000       SURFACE LEAKAGE     =           0.0000
           AG WELLS      =           0.0000             AG WELLS      =           0.0000

               TOTAL OUT =    65709048.0000                 TOTAL OUT =          13.0770

                IN - OUT =       -1896.0000                  IN - OUT =      -8.0872E-04

     PERCENT DISCREPANCY =          -0.00         PERCENT DISCREPANCY =          -0.01






         TIME SUMMARY AT END OF TIME STEP   30 IN STRESS PERIOD    3
                    SECONDS     MINUTES      HOURS       DAYS        YEARS
                    -----------------------------------------------------------
   TIME STEP LENGTH  87667.      1461.1      24.352      1.0147     2.77799E-03
 STRESS PERIOD TIME 2.63000E+06  43833.      730.56      30.440     8.33397E-02
         TOTAL TIME 5.34640E+06  89107.      1485.1      61.880     0.16942    
1
1
                            STRESS PERIOD NO.    4, LENGTH =   2630000.    
                            -----------------------------------------------

                              NUMBER OF TIME STEPS =    30

                               MULTIPLIER FOR DELT =     1.000

                            INITIAL TIME STEP SIZE =   87666.66    

 REUSING NON-PARAMETER GHB CELLS FROM LAST STRESS PERIOD

      2 GHB CELLS

 REUSING STREAM SEGMENT DATA FROM LAST STRESS PERIOD



            AREAL INFILTRATION RATE
 READING ON UNIT   19 WITH FORMAT: (FREE)              

            1           2           3           4           5           6           7           8           9          10
 ........................................................................................................................
   1   1.0000E-10  2.0000E-10   0.000       0.000       0.000       0.000       0.000       0.000       0.000       0.000    
   2   2.0000E-10  1.0000E-10  2.0000E-10   0.000       0.000      8.0000E-10  8.0000E-10  5.0000E-10   0.000       0.000    
   3    0.000      5.0000E-10  1.0000E-10  1.0000E-10  8.0000E-10  8.0000E-10  5.0000E-10  5.0000E-10   0.000       0.000    
   4   8.0000E-10  5.0000E-10  1.0000E-10  1.0000E-10  1.0000E-10  1.0000E-10  1.0000E-10  1.0000E-10  2.0000E-10   0.000    
   5   8.0000E-10  5.0000E-10  1.0000E-10  1.0000E-10  1.0000E-10  1.0000E-10  1.0000E-10  1.0000E-10  1.0000E-10  1.0000E-10
   6   8.0000E-10  5.0000E-10  5.0000E-10  2.0000E-10  2.0000E-10  1.0000E-10  1.0000E-10  1.0000E-10  1.0000E-10  5.0000E-10
   7   8.0000E-10  5.0000E-10  5.0000E-10  2.0000E-10  2.0000E-10  1.0000E-10  1.0000E-10  2.0000E-10  2.0000E-10   0.000    
   8    0.000      5.0000E-10  5.0000E-10  2.0000E-10  2.0000E-10  1.0000E-10  1.0000E-10  2.0000E-10  5.0000E-10   0.000    
   9    0.000      5.0000E-10  5.0000E-10  2.0000E-10  2.0000E-10  1.0000E-10  1.0000E-10  2.0000E-10  5.0000E-10   0.000    
  10    0.000      5.0000E-10  5.0000E-10  2.0000E-10  2.0000E-10  1.0000E-10  1.0000E-10  2.0000E-10  5.0000E-10  8.0000E-10
  11    0.000      1.0000E-10  1.0000E-10  1.0000E-10  1.0000E-10  1.0000E-10  1.0000E-10  2.0000E-10  5.0000E-10   0.000    
  12   1.0000E-10  1.0000E-10  1.0000E-10  1.0000E-10  1.0000E-10  1.0000E-10  1.0000E-10  1.0000E-10  2.0000E-10   0.000    
  13   1.0000E-10  1.0000E-10  2.0000E-10  2.0000E-10  2.0000E-10  2.0000E-10  2.0000E-10  1.0000E-10  1.0000E-10   0.000    
  14    0.000      2.0000E-10  5.0000E-10  5.0000E-10  5.0000E-10  5.0000E-10  5.0000E-10  2.0000E-10  1.0000E-10   0.000    
  15    0.000       0.000      8.0000E-10  8.0000E-10  8.0000E-10  8.0000E-10   0.000       0.000       0.000       0.000    

                  ET RATE =  5.000000E-10

 USING ET EXTINCTION DEPTH FROM PREVIOUS STRESS PERIOD. CURRENT PERIOD IS:       4

 USING EXTINCTION WATER CONTENT FROM PREVIOUS STRESS PERIOD. CURRENT PERIOD IS:       4

 USING AIR ENTRY PRESSURE FROM PREVIOUS STRESS PERIOD. CURRENT PERIOD IS:       4

 USING ROOT PRESSURE HEAD FROM PREVIOUS STRESS PERIOD. CURRENT PERIOD IS:       4

 USING ROOT ACTIVITY FROM PREVIOUS STRESS PERIOD. CURRENT PERIOD IS:       4

 PROCESSING AG STRESS PERIOD DATA

 READING AG STRESS PERIOD DATA

 READING IRRIGATION SEGMENT

 READING IRRIGATION WELL

 READING SUPPLEMENTAL WELL

 NO IRRPOND OR REUSING IRRPOND DATA FROM LAST STRESS PERIOD

 END PROCESSING AG STRESS PERIOD DATA OPTIONS
 
 SOLVING FOR HEAD 
                                                   Max.-Head-Change                         Max.-Flux-Residual
  Residual-Control   Outer-Iter.   Inner-Iter.     Column Row Layer    Maximum-Head-Change  Column Row Layer    Maximum-Flux-Residual          L2-NORM 
          0                 1           2             4   13     1       0.4940256429E-02       4   13    1         0.2828336750E+00      0.7295622726E+00
          0                 2           2             4   13     1      -0.4754237852E-03       4   13    1        -0.2798478083E-01      0.7195857241E-01
          0                 3           1             2    2     1       0.3214211801E-04       4   13    1         0.1929798420E-02      0.4944689143E-02

    ------------------------------------------------
       NWT REQUIRED            3 OUTER ITERATIONS 
       AND A TOTAL OF          5 INNER ITERATIONS.
    ------------------------------------------------

 NO OUTPUT CONTROL FOR STRESS PERIOD    4   TIME STEP    1
 
 SOLVING FOR HEAD 
                                                   Max.-Head-Change                         Max.-Flux-Residual
  Residual-Control   Outer-Iter.   Inner-Iter.     Column Row Layer    Maximum-Head-Change  Column Row Layer    Maximum-Flux-Residual          L2-NORM 
          0                 1           2             2    2     1       0.4822158127E-02       4   13    1         0.2567875754E+00      0.7019733289E+00
          0                 2           2             2    2     1      -0.4690654015E-03       4   13    1        -0.2540533821E-01      0.6931298440E-01
          0                 3           1             2    2     1       0.3194160581E-04       2    2    1         0.1762315277E-02      0.4770416523E-02

    ------------------------------------------------
       NWT REQUIRED            3 OUTER ITERATIONS 
       AND A TOTAL OF          5 INNER ITERATIONS.
    ------------------------------------------------

 NO OUTPUT CONTROL FOR STRESS PERIOD    4   TIME STEP    2
 
 SOLVING FOR HEAD 
                                                   Max.-Head-Change                         Max.-Flux-Residual
  Residual-Control   Outer-Iter.   Inner-Iter.     Column Row Layer    Maximum-Head-Change  Column Row Layer    Maximum-Flux-Residual          L2-NORM 
          0                 1           2             2    2     1       0.4792218813E-02       2    2    1         0.2501847493E+00      0.6774938843E+00
          0                 2           2             2    2     1      -0.4661531065E-03       2    2    1        -0.2501853423E-01      0.6696553959E-01
          0                 3           1             2    2     1       0.3174328970E-04       2    2    1         0.1751297593E-02      0.4614768228E-02

    ------------------------------------------------
       NWT REQUIRED            3 OUTER ITERATIONS 
       AND A TOTAL OF          5 INNER ITERATIONS.
    ------------------------------------------------

 NO OUTPUT CONTROL FOR STRESS PERIOD    4   TIME STEP    3
 
 SOLVING FOR HEAD 
                                                   Max.-Head-Change                         Max.-Flux-Residual
  Residual-Control   Outer-Iter.   Inner-Iter.     Column Row Layer    Maximum-Head-Change  Column Row Layer    Maximum-Flux-Residual          L2-NORM 
          0                 1           2             2    2     1       0.4762605471E-02       2    2    1         0.2486279909E+00      0.6557713487E+00
          0                 2           2             2    2     1      -0.4632725198E-03       2    2    1        -0.2486285733E-01      0.6488407506E-01
          0                 3           1             2    2     1       0.3154713253E-04       2    2    1         0.1740400208E-02      0.4478185350E-02

    ------------------------------------------------
       NWT REQUIRED            3 OUTER ITERATIONS 
       AND A TOTAL OF          5 INNER ITERATIONS.
    ------------------------------------------------

 NO OUTPUT CONTROL FOR STRESS PERIOD    4   TIME STEP    4
 
 SOLVING FOR HEAD 
                                                   Max.-Head-Change                         Max.-Flux-Residual
  Residual-Control   Outer-Iter.   Inner-Iter.     Column Row Layer    Maximum-Head-Change  Column Row Layer    Maximum-Flux-Residual          L2-NORM 
          0                 1           2             2    2     1       0.4733482239E-02       2    2    1         0.2470970108E+00      0.6364935214E+00
          0                 2           2             2    2     1      -0.4604396079E-03       2    2    1        -0.2470975830E-01      0.6303681786E-01
          0                 3           1             2    2     1       0.3135422180E-04       2    2    1         0.1729683279E-02      0.4356164970E-02

    ------------------------------------------------
       NWT REQUIRED            3 OUTER ITERATIONS 
       AND A TOTAL OF          5 INNER ITERATIONS.
    ------------------------------------------------

 NO OUTPUT CONTROL FOR STRESS PERIOD    4   TIME STEP    5
 
 SOLVING FOR HEAD 
                                                   Max.-Head-Change                         Max.-Flux-Residual
  Residual-Control   Outer-Iter.   Inner-Iter.     Column Row Layer    Maximum-Head-Change  Column Row Layer    Maximum-Flux-Residual          L2-NORM 
          0                 1           2             2    2     1       0.4704672246E-02       2    2    1         0.2455825651E+00      0.6193636568E+00
          0                 2           2             2    2     1      -0.4576371664E-03       2    2    1        -0.2455831273E-01      0.6139578013E-01
          0                 3           1             2    2     1       0.3116338622E-04       2    2    1         0.1719082110E-02      0.4247375233E-02

    ------------------------------------------------
       NWT REQUIRED            3 OUTER ITERATIONS 
       AND A TOTAL OF          5 INNER ITERATIONS.
    ------------------------------------------------

 NO OUTPUT CONTROL FOR STRESS PERIOD    4   TIME STEP    6
 
 SOLVING FOR HEAD 
                                                   Max.-Head-Change                         Max.-Flux-Residual
  Residual-Control   Outer-Iter.   Inner-Iter.     Column Row Layer    Maximum-Head-Change  Column Row Layer    Maximum-Flux-Residual          L2-NORM 
          0                 1           2             2    2     1       0.4676255243E-02       2    2    1         0.2440887991E+00      0.6041381169E+00
          0                 2           2             2    2     1      -0.4548729520E-03       2    2    1        -0.2440893516E-01      0.5993800517E-01
          0                 3           1             2    2     1       0.3097515358E-04       2    2    1         0.1708625675E-02      0.4151745983E-02

    ------------------------------------------------
       NWT REQUIRED            3 OUTER ITERATIONS 
       AND A TOTAL OF          5 INNER ITERATIONS.
    ------------------------------------------------

 NO OUTPUT CONTROL FOR STRESS PERIOD    4   TIME STEP    7
 
 SOLVING FOR HEAD 
                                                   Max.-Head-Change                         Max.-Flux-Residual
  Residual-Control   Outer-Iter.   Inner-Iter.     Column Row Layer    Maximum-Head-Change  Column Row Layer    Maximum-Flux-Residual          L2-NORM 
          0                 1           2             2    2     1       0.4648225140E-02       2    2    1         0.2426154093E+00      0.5905842514E+00
          0                 2           2             2    2     1      -0.4521463726E-03       2    2    1        -0.2426159521E-01      0.5863995959E-01
          0                 3           1             2    2     1       0.3078948363E-04       2    2    1         0.1698311876E-02      0.4066528412E-02

    ------------------------------------------------
       NWT REQUIRED            3 OUTER ITERATIONS 
       AND A TOTAL OF          5 INNER ITERATIONS.
    ------------------------------------------------

 NO OUTPUT CONTROL FOR STRESS PERIOD    4   TIME STEP    8
 
 SOLVING FOR HEAD 
                                                   Max.-Head-Change                         Max.-Flux-Residual
  Residual-Control   Outer-Iter.   Inner-Iter.     Column Row Layer    Maximum-Head-Change  Column Row Layer    Maximum-Flux-Residual          L2-NORM 
          0                 1           2             2    2     1       0.4620490959E-02       2    2    1         0.2411576405E+00      0.5784937476E+00
          0                 2           2             2    2     1      -0.4494485790E-03       2    2    1        -0.2411581739E-01      0.5748116049E-01
          0                 3           1             2    2     1       0.3060577453E-04       2    2    1         0.1688107457E-02      0.3990064608E-02

    ------------------------------------------------
       NWT REQUIRED            3 OUTER ITERATIONS 
       AND A TOTAL OF          5 INNER ITERATIONS.
    ------------------------------------------------

 NO OUTPUT CONTROL FOR STRESS PERIOD    4   TIME STEP    9
 
 SOLVING FOR HEAD 
                                                   Max.-Head-Change                         Max.-Flux-Residual
  Residual-Control   Outer-Iter.   Inner-Iter.     Column Row Layer    Maximum-Head-Change  Column Row Layer    Maximum-Flux-Residual          L2-NORM 
          0                 1           2             2    2     1       0.4593217664E-02       2    2    1         0.2397240935E+00      0.5676885115E+00
          0                 2           2             2    2     1      -0.4467956171E-03       2    2    1        -0.2397246178E-01      0.5644437923E-01
          0                 3           1             2    2     1       0.3042511732E-04       2    2    1         0.1678072550E-02      0.3921225509E-02

    ------------------------------------------------
       NWT REQUIRED            3 OUTER ITERATIONS 
       AND A TOTAL OF          5 INNER ITERATIONS.
    ------------------------------------------------

 NO OUTPUT CONTROL FOR STRESS PERIOD    4   TIME STEP   10
 
 SOLVING FOR HEAD 
                                                   Max.-Head-Change                         Max.-Flux-Residual
  Residual-Control   Outer-Iter.   Inner-Iter.     Column Row Layer    Maximum-Head-Change  Column Row Layer    Maximum-Flux-Residual          L2-NORM 
          0                 1           2             2    2     1       0.4566229252E-02       2    2    1         0.2383055642E+00      0.5580162847E+00
          0                 2           2             2    2     1      -0.4441703675E-03       2    2    1        -0.2383060796E-01      0.5551692614E-01
          0                 3           1             2    2     1       0.3024634806E-04       2    2    1         0.1668142804E-02      0.3860277890E-02

    ------------------------------------------------
       NWT REQUIRED            3 OUTER ITERATIONS 
       AND A TOTAL OF          5 INNER ITERATIONS.
    ------------------------------------------------

 NO OUTPUT CONTROL FOR STRESS PERIOD    4   TIME STEP   11
 
 SOLVING FOR HEAD 
                                                   Max.-Head-Change                         Max.-Flux-Residual
  Residual-Control   Outer-Iter.   Inner-Iter.     Column Row Layer    Maximum-Head-Change  Column Row Layer    Maximum-Flux-Residual          L2-NORM 
          0                 1           2             2    2     1       0.4539604892E-02       2    2    1         0.2369062451E+00      0.5493253848E+00
          0                 2           2             2    2     1      -0.4415805301E-03       2    2    1        -0.2369067519E-01      0.5468227958E-01
          0                 3           1             2    2     1       0.3006999002E-04       2    2    1         0.1658347512E-02      0.3805227581E-02

    ------------------------------------------------
       NWT REQUIRED            3 OUTER ITERATIONS 
       AND A TOTAL OF          5 INNER ITERATIONS.
    ------------------------------------------------

 NO OUTPUT CONTROL FOR STRESS PERIOD    4   TIME STEP   12
 
 SOLVING FOR HEAD 
                                                   Max.-Head-Change                         Max.-Flux-Residual
  Residual-Control   Outer-Iter.   Inner-Iter.     Column Row Layer    Maximum-Head-Change  Column Row Layer    Maximum-Flux-Residual          L2-NORM 
          0                 1           2             2    2     1       0.4513339655E-02       2    2    1         0.2355258017E+00      0.5415014739E+00
          0                 2           2             2    2     1      -0.4390256255E-03       2    2    1        -0.2355262999E-01      0.5393066245E-01
          0                 3           1             2    2     1       0.2989601008E-04       2    2    1         0.1648684331E-02      0.3755364503E-02

    ------------------------------------------------
       NWT REQUIRED            3 OUTER ITERATIONS 
       AND A TOTAL OF          5 INNER ITERATIONS.
    ------------------------------------------------

 NO OUTPUT CONTROL FOR STRESS PERIOD    4   TIME STEP   13
 
 SOLVING FOR HEAD 
                                                   Max.-Head-Change                         Max.-Flux-Residual
  Residual-Control   Outer-Iter.   Inner-Iter.     Column Row Layer    Maximum-Head-Change  Column Row Layer    Maximum-Flux-Residual          L2-NORM 
          0                 1           2             2    2     1       0.4487427999E-02       2    2    1         0.2341639785E+00      0.5344404299E+00
          0                 2           2             2    2     1      -0.4365051153E-03       2    2    1        -0.2341644683E-01      0.5325064171E-01
          0                 3           1             2    2     1       0.2972437273E-04       2    2    1         0.1639151517E-02      0.3709722433E-02

    ------------------------------------------------
       NWT REQUIRED            3 OUTER ITERATIONS 
       AND A TOTAL OF          5 INNER ITERATIONS.
    ------------------------------------------------

 NO OUTPUT CONTROL FOR STRESS PERIOD    4   TIME STEP   14
 
 SOLVING FOR HEAD 
                                                   Max.-Head-Change                         Max.-Flux-Residual
  Residual-Control   Outer-Iter.   Inner-Iter.     Column Row Layer    Maximum-Head-Change  Column Row Layer    Maximum-Flux-Residual          L2-NORM 
          0                 1           2             2    2     1       0.4461780208E-02       2    2    1         0.2328160480E+00      0.5280414352E+00
          0                 2           2             2    2     1      -0.4340102724E-03       2    2    1        -0.2328165297E-01      0.5263399317E-01
          0                 3           1             2    2     1       0.2955448369E-04       2    2    1         0.1629715952E-02      0.3668692096E-02

    ------------------------------------------------
       NWT REQUIRED            3 OUTER ITERATIONS 
       AND A TOTAL OF          5 INNER ITERATIONS.
    ------------------------------------------------

 NO OUTPUT CONTROL FOR STRESS PERIOD    4   TIME STEP   15
 
 SOLVING FOR HEAD 
                                                   Max.-Head-Change                         Max.-Flux-Residual
  Residual-Control   Outer-Iter.   Inner-Iter.     Column Row Layer    Maximum-Head-Change  Column Row Layer    Maximum-Flux-Residual          L2-NORM 
          0                 1           2             2    2     1       0.4436475808E-02       2    2    1         0.2314862385E+00      0.5222149451E+00
          0                 2           2             2    2     1      -0.4315488322E-03       2    2    1        -0.2314867122E-01      0.5207189517E-01
          0                 3           1             2    2     1       0.2938686860E-04       2    2    1         0.1620407231E-02      0.3631218894E-02

    ------------------------------------------------
       NWT REQUIRED            3 OUTER ITERATIONS 
       AND A TOTAL OF          5 INNER ITERATIONS.
    ------------------------------------------------

 NO OUTPUT CONTROL FOR STRESS PERIOD    4   TIME STEP   16
 
 SOLVING FOR HEAD 
                                                   Max.-Head-Change                         Max.-Flux-Residual
  Residual-Control   Outer-Iter.   Inner-Iter.     Column Row Layer    Maximum-Head-Change  Column Row Layer    Maximum-Flux-Residual          L2-NORM 
          0                 1           2             2    2     1       0.4411510217E-02       2    2    1         0.2301742335E+00      0.5168938498E+00
          0                 2           2             2    2     1      -0.4291203492E-03       2    2    1        -0.2301746994E-01      0.5155769981E-01
          0                 3           1             2    2     1       0.2922149812E-04       2    2    1         0.1611223157E-02      0.3596963481E-02

    ------------------------------------------------
       NWT REQUIRED            3 OUTER ITERATIONS 
       AND A TOTAL OF          5 INNER ITERATIONS.
    ------------------------------------------------

 NO OUTPUT CONTROL FOR STRESS PERIOD    4   TIME STEP   17
 
 SOLVING FOR HEAD 
                                                   Max.-Head-Change                         Max.-Flux-Residual
  Residual-Control   Outer-Iter.   Inner-Iter.     Column Row Layer    Maximum-Head-Change  Column Row Layer    Maximum-Flux-Residual          L2-NORM 
          0                 1           2             2    2     1       0.4386877882E-02       2    2    1         0.2288797954E+00      0.5120298929E+00
          0                 2           2             2    2     1      -0.4267242835E-03       2    2    1        -0.2288802537E-01      0.5108666455E-01
          0                 3           1             2    2     1       0.2905833509E-04       2    2    1         0.1602162048E-02      0.3565003653E-02

    ------------------------------------------------
       NWT REQUIRED            3 OUTER ITERATIONS 
       AND A TOTAL OF          5 INNER ITERATIONS.
    ------------------------------------------------

 NO OUTPUT CONTROL FOR STRESS PERIOD    4   TIME STEP   18
 
 SOLVING FOR HEAD 
                                                   Max.-Head-Change                         Max.-Flux-Residual
  Residual-Control   Outer-Iter.   Inner-Iter.     Column Row Layer    Maximum-Head-Change  Column Row Layer    Maximum-Flux-Residual          L2-NORM 
          0                 1           2             2    2     1       0.4362574026E-02       2    2    1         0.2276026363E+00      0.5075547223E+00
          0                 2           2             2    2     1      -0.4243601697E-03       2    2    1        -0.2276030872E-01      0.5065321812E-01
          0                 3           1             2    2     1       0.2889734804E-04       2    2    1         0.1593221883E-02      0.3536189499E-02

    ------------------------------------------------
       NWT REQUIRED            3 OUTER ITERATIONS 
       AND A TOTAL OF          5 INNER ITERATIONS.
    ------------------------------------------------

 NO OUTPUT CONTROL FOR STRESS PERIOD    4   TIME STEP   19
 
 SOLVING FOR HEAD 
                                                   Max.-Head-Change                         Max.-Flux-Residual
  Residual-Control   Outer-Iter.   Inner-Iter.     Column Row Layer    Maximum-Head-Change  Column Row Layer    Maximum-Flux-Residual          L2-NORM 
          0                 1           2             2    2     1       0.4338508634E-02       2    2    1         0.2263380676E+00      0.5034376619E+00
          0                 2           2             2    2     1      -0.4220192519E-03       2    2    1        -0.2263385111E-01      0.5025345755E-01
          0                 3           1             2    2     1       0.2873794007E-04       2    2    1         0.1584369836E-02      0.3509546944E-02

    ------------------------------------------------
       NWT REQUIRED            3 OUTER ITERATIONS 
       AND A TOTAL OF          5 INNER ITERATIONS.
    ------------------------------------------------

 NO OUTPUT CONTROL FOR STRESS PERIOD    4   TIME STEP   20
 
 SOLVING FOR HEAD 
                                                   Max.-Head-Change                         Max.-Flux-Residual
  Residual-Control   Outer-Iter.   Inner-Iter.     Column Row Layer    Maximum-Head-Change  Column Row Layer    Maximum-Flux-Residual          L2-NORM 
          0                 1           2             2    2     1       0.4314847351E-02       2    2    1         0.2250947447E+00      0.4996128013E+00
          0                 2           2             2    2     1      -0.4197176439E-03       2    2    1        -0.2250951812E-01      0.4988139387E-01
          0                 3           1             2    2     1       0.2858120912E-04       2    2    1         0.1575666532E-02      0.3484255654E-02

    ------------------------------------------------
       NWT REQUIRED            3 OUTER ITERATIONS 
       AND A TOTAL OF          5 INNER ITERATIONS.
    ------------------------------------------------

 NO OUTPUT CONTROL FOR STRESS PERIOD    4   TIME STEP   21
 
 SOLVING FOR HEAD 
                                                   Max.-Head-Change                         Max.-Flux-Residual
  Residual-Control   Outer-Iter.   Inner-Iter.     Column Row Layer    Maximum-Head-Change  Column Row Layer    Maximum-Flux-Residual          L2-NORM 
          0                 1           2             2    2     1       0.4291414664E-02       2    2    1         0.2238634925E+00      0.4960630479E+00
          0                 2           2             2    2     1      -0.4174382721E-03       2    2    1        -0.2238639221E-01      0.4953554844E-01
          0                 3           1             2    2     1       0.2842599287E-04       2    2    1         0.1567047735E-02      0.3460723927E-02

    ------------------------------------------------
       NWT REQUIRED            3 OUTER ITERATIONS 
       AND A TOTAL OF          5 INNER ITERATIONS.
    ------------------------------------------------

 NO OUTPUT CONTROL FOR STRESS PERIOD    4   TIME STEP   22
 
 SOLVING FOR HEAD 
                                                   Max.-Head-Change                         Max.-Flux-Residual
  Residual-Control   Outer-Iter.   Inner-Iter.     Column Row Layer    Maximum-Head-Change  Column Row Layer    Maximum-Flux-Residual          L2-NORM 
          0                 1           2             2    2     1       0.4268292141E-02       2    2    1         0.2226485337E+00      0.4927559452E+00
          0                 2           2             2    2     1      -0.4151890704E-03       2    2    1        -0.2226489564E-01      0.4921384520E-01
          0                 3           1             2    2     1       0.2827283023E-04       2    2    1         0.1558542960E-02      0.3439318153E-02

    ------------------------------------------------
       NWT REQUIRED            3 OUTER ITERATIONS 
       AND A TOTAL OF          5 INNER ITERATIONS.
    ------------------------------------------------

 NO OUTPUT CONTROL FOR STRESS PERIOD    4   TIME STEP   23
 
 SOLVING FOR HEAD 
                                                   Max.-Head-Change                         Max.-Flux-Residual
  Residual-Control   Outer-Iter.   Inner-Iter.     Column Row Layer    Maximum-Head-Change  Column Row Layer    Maximum-Flux-Residual          L2-NORM 
          0                 1           2             2    2     1       0.4245474688E-02       2    2    1         0.2214496566E+00      0.4896634547E+00
          0                 2           2             2    2     1      -0.4129695445E-03       2    2    1        -0.2214500726E-01      0.4890987911E-01
          0                 3           1             2    2     1       0.2812168902E-04       2    2    1         0.1550150785E-02      0.3418715790E-02

    ------------------------------------------------
       NWT REQUIRED            3 OUTER ITERATIONS 
       AND A TOTAL OF          5 INNER ITERATIONS.
    ------------------------------------------------

 NO OUTPUT CONTROL FOR STRESS PERIOD    4   TIME STEP   24
 
 SOLVING FOR HEAD 
                                                   Max.-Head-Change                         Max.-Flux-Residual
  Residual-Control   Outer-Iter.   Inner-Iter.     Column Row Layer    Maximum-Head-Change  Column Row Layer    Maximum-Flux-Residual          L2-NORM 
          0                 1           2             2    2     1       0.4222873025E-02       2    2    1         0.2202621556E+00      0.4867597822E+00
          0                 2           2             2    2     1      -0.4107710089E-03       2    2    1        -0.2202625650E-01      0.4862641422E-01
          0                 3           1             2    2     1       0.2797197709E-04       2    2    1         0.1541838243E-02      0.3399615835E-02

    ------------------------------------------------
       NWT REQUIRED            3 OUTER ITERATIONS 
       AND A TOTAL OF          5 INNER ITERATIONS.
    ------------------------------------------------

 NO OUTPUT CONTROL FOR STRESS PERIOD    4   TIME STEP   25
 
 SOLVING FOR HEAD 
                                                   Max.-Head-Change                         Max.-Flux-Residual
  Residual-Control   Outer-Iter.   Inner-Iter.     Column Row Layer    Maximum-Head-Change  Column Row Layer    Maximum-Flux-Residual          L2-NORM 
          0                 1           2             2    2     1       0.4200652857E-02       2    2    1         0.2190947260E+00      0.4840163545E+00
          0                 2           2             2    2     1      -0.4086095830E-03       2    2    1        -0.2190951291E-01      0.4835769767E-01
          0                 3           1             2    2     1       0.2782479187E-04       2    2    1         0.1533666189E-02      0.3380922463E-02

    ------------------------------------------------
       NWT REQUIRED            3 OUTER ITERATIONS 
       AND A TOTAL OF          5 INNER ITERATIONS.
    ------------------------------------------------

 NO OUTPUT CONTROL FOR STRESS PERIOD    4   TIME STEP   26
 
 SOLVING FOR HEAD 
                                                   Max.-Head-Change                         Max.-Flux-Residual
  Residual-Control   Outer-Iter.   Inner-Iter.     Column Row Layer    Maximum-Head-Change  Column Row Layer    Maximum-Flux-Residual          L2-NORM 
          0                 1           2             2    2     1       0.4178639351E-02       2    2    1         0.2179381933E+00      0.4814396288E+00
          0                 2           2             2    2     1      -0.4064682595E-03       2    2    1        -0.2179385901E-01      0.4810554201E-01
          0                 3           1             2    2     1       0.2767897558E-04       2    2    1         0.1525570402E-02      0.3363866503E-02

    ------------------------------------------------
       NWT REQUIRED            3 OUTER ITERATIONS 
       AND A TOTAL OF          5 INNER ITERATIONS.
    ------------------------------------------------

 NO OUTPUT CONTROL FOR STRESS PERIOD    4   TIME STEP   27
 
 SOLVING FOR HEAD 
                                                   Max.-Head-Change                         Max.-Flux-Residual
  Residual-Control   Outer-Iter.   Inner-Iter.     Column Row Layer    Maximum-Head-Change  Column Row Layer    Maximum-Flux-Residual          L2-NORM 
          0                 1           2             2    2     1       0.4156913743E-02       2    2    1         0.2167968174E+00      0.4789933937E+00
          0                 2           2             2    2     1      -0.4043549410E-03       2    2    1        -0.2167972081E-01      0.4786449974E-01
          0                 3           1             2    2     1       0.2753506663E-04       2    2    1         0.1517580741E-02      0.3347386713E-02

    ------------------------------------------------
       NWT REQUIRED            3 OUTER ITERATIONS 
       AND A TOTAL OF          5 INNER ITERATIONS.
    ------------------------------------------------

 NO OUTPUT CONTROL FOR STRESS PERIOD    4   TIME STEP   28
 
 SOLVING FOR HEAD 
                                                   Max.-Head-Change                         Max.-Flux-Residual
  Residual-Control   Outer-Iter.   Inner-Iter.     Column Row Layer    Maximum-Head-Change  Column Row Layer    Maximum-Flux-Residual          L2-NORM 
          0                 1           2             2    2     1       0.4135472034E-02       2    2    1         0.2156703687E+00      0.4766662625E+00
          0                 2           2             2    2     1      -0.4022692384E-03       2    2    1        -0.2156707535E-01      0.4763545002E-01
          0                 3           1             2    2     1       0.2739303805E-04       2    2    1         0.1509695551E-02      0.3331585336E-02

    ------------------------------------------------
       NWT REQUIRED            3 OUTER ITERATIONS 
       AND A TOTAL OF          5 INNER ITERATIONS.
    ------------------------------------------------

 NO OUTPUT CONTROL FOR STRESS PERIOD    4   TIME STEP   29
 
 SOLVING FOR HEAD 
                                                   Max.-Head-Change                         Max.-Flux-Residual
  Residual-Control   Outer-Iter.   Inner-Iter.     Column Row Layer    Maximum-Head-Change  Column Row Layer    Maximum-Flux-Residual          L2-NORM 
          0                 1           2             2    2     1       0.3369543518E-02       2    2    1         0.1756372930E+00      0.4353000405E+00
          0                 2           2             2    2     1      -0.3277650554E-03       2    2    1        -0.1756375291E-01      0.4340742729E-01
          0                 3           1             2    2     1       0.2231958176E-04       2    2    1         0.1229463011E-02      0.3027373497E-02

    ------------------------------------------------
       NWT REQUIRED            3 OUTER ITERATIONS 
       AND A TOTAL OF          5 INNER ITERATIONS.
    ------------------------------------------------

 NO OUTPUT CONTROL FOR STRESS PERIOD    4   TIME STEP   30



 STREAM LISTING     PERIOD      4   STEP       30

 LAYER ROW COL. STREAM  RCH.  FLOW INTO     FLOW TO   FLOW OUT OF   OVRLND.     DIRECT     STREAM       STREAM     STREAM     STREAM   STREAMBED  STREAMBED
                SEG.NO.  NO.  STRM. RCH.    AQUIFER    STRM. RCH.    RUNOFF     PRECIP       ET          HEAD       DEPTH      WIDTH   CONDCTNC.   GRADIENT

   1    1    1     1     1    2.3343E+01  2.3738E-01   2.3105E+01  0.000E+00  0.000E+00  0.000E+00  1.09420E+03  1.153E+00  1.270E+01  5.716E-02  1.384E+00
   1    2    2     1     2    2.3105E+01  3.6700E-01   2.2738E+01  0.000E+00  0.000E+00  0.000E+00  1.08921E+03  1.148E+00  1.264E+01  8.847E-02  1.383E+00
   1    3    3     1     3    2.2738E+01  3.1238E-01   2.2426E+01  0.000E+00  0.000E+00  0.000E+00  1.08356E+03  1.143E+00  1.257E+01  7.540E-02  1.381E+00
   1    3    4     1     4    2.2426E+01  2.8716E-01   2.2139E+01  0.000E+00  0.000E+00  0.000E+00  1.07855E+03  1.138E+00  1.250E+01  6.939E-02  1.379E+00
   1    4    5     2     1    2.0139E+01  3.1634E-01   1.9822E+01  0.000E+00  0.000E+00  0.000E+00  1.07299E+03  1.056E+00  1.200E+01  7.800E-02  1.352E+00
   1    5    6     2     2    1.9822E+01  2.4280E-01   1.9580E+01  0.000E+00  0.000E+00  0.000E+00  1.06756E+03  1.047E+00  1.200E+01  6.000E-02  1.349E+00
   1    6    6     2     3    1.9580E+01  2.4234E-01   1.9337E+01  0.000E+00  0.000E+00  0.000E+00  1.06283E+03  1.039E+00  1.200E+01  6.000E-02  1.346E+00
   1    7    6     2     4    1.9337E+01  2.4187E-01   1.9095E+01  0.000E+00  0.000E+00  0.000E+00  1.05811E+03  1.031E+00  1.200E+01  6.000E-02  1.344E+00
   1    8    6     2     5    1.9095E+01  2.4140E-01   1.8854E+01  0.000E+00  0.000E+00  0.000E+00  1.05338E+03  1.023E+00  1.200E+01  6.000E-02  1.341E+00
   1    3    5     3     1    2.0000E+00  2.8252E-01   1.7175E+00  0.000E+00  0.000E+00  0.000E+00  1.07555E+03  1.909E+00  9.636E+00  7.227E-02  1.955E+00
   1    3    6     3     2    1.7175E+00  2.4905E-01   1.4684E+00  0.000E+00  0.000E+00  0.000E+00  1.07264E+03  1.727E+00  8.909E+00  6.682E-02  1.864E+00
   1    3    7     3     3    1.4684E+00  1.9718E-01   1.2712E+00  0.000E+00  0.000E+00  0.000E+00  1.06987E+03  1.555E+00  8.218E+00  5.547E-02  1.777E+00
   1    4    8     3     4    1.2712E+00  2.2567E-01   1.0456E+00  0.000E+00  0.000E+00  0.000E+00  1.06682E+03  1.364E+00  7.455E+00  6.709E-02  1.682E+00
   1    5    8     3     5    1.0456E+00  1.5790E-01   8.8768E-01  0.000E+00  0.000E+00  0.000E+00  1.06362E+03  1.164E+00  6.655E+00  4.991E-02  1.582E+00
   1    6    8     3     6    8.8768E-01  5.5980E-02   8.3170E-01  0.000E+00  0.000E+00  0.000E+00  1.06158E+03  1.036E+00  6.145E+00  1.844E-02  1.518E+00
   1    5   10     4     1    1.0000E+01  9.0919E-02   9.9091E+00  0.000E+00  0.000E+00  0.000E+00  1.07836E+03  6.368E-01  1.000E+01  2.500E-02  1.212E+00
   1    5    9     4     2    9.9091E+00  1.8158E-01   9.7275E+00  0.000E+00  0.000E+00  0.000E+00  1.07154E+03  6.315E-01  1.000E+01  5.000E-02  1.211E+00
   1    6    8     4     3    9.7275E+00  1.2689E-01   9.6006E+00  0.000E+00  0.000E+00  0.000E+00  1.06381E+03  6.256E-01  1.000E+01  3.500E-02  1.209E+00
   1    6    8     5     1    1.0432E+01  2.2686E-01   1.0205E+01  0.000E+00  0.000E+00  0.000E+00  1.05868E+03  6.790E-01  1.542E+01  6.166E-02  1.226E+00
   1    7    7     5     2    1.0205E+01  2.7894E-01   9.9265E+00  0.000E+00  0.000E+00  0.000E+00  1.05417E+03  6.732E-01  1.519E+01  7.594E-02  1.224E+00
   1    8    7     5     3    9.9265E+00  1.9221E-01   9.7343E+00  0.000E+00  0.000E+00  0.000E+00  1.04992E+03  6.676E-01  1.497E+01  5.241E-02  1.223E+00
   1    8    6     5     4    9.7343E+00  1.3577E-01   9.5985E+00  0.000E+00  0.000E+00  0.000E+00  1.04691E+03  6.637E-01  1.482E+01  3.706E-02  1.221E+00
   1    9    6     6     1    2.8452E+01  2.5896E-01   2.8194E+01  0.000E+00  0.000E+00  0.000E+00  1.04404E+03  1.316E+00  1.200E+01  6.000E-02  1.439E+00
   1   10    7     6     2    2.8194E+01  2.5853E-01   2.7935E+01  0.000E+00  0.000E+00  0.000E+00  1.03949E+03  1.309E+00  1.200E+01  6.000E-02  1.436E+00
   1   11    7     6     3    2.7935E+01  2.5809E-01   2.7677E+01  0.000E+00  0.000E+00  0.000E+00  1.03494E+03  1.302E+00  1.200E+01  6.000E-02  1.434E+00
   1   12    7     6     4    2.7677E+01  2.5766E-01   2.7419E+01  0.000E+00  0.000E+00  0.000E+00  1.03039E+03  1.294E+00  1.200E+01  6.000E-02  1.431E+00
   1   13    7     6     5    2.7419E+01  8.2030E-03   2.7411E+01  0.000E+00  0.000E+00  0.000E+00  1.02720E+03  1.291E+00  1.200E+01  2.400E-02  1.139E-01
   1   14    9     7     1    1.5000E+02  1.3670E+00   1.4863E+02  0.000E+00  0.000E+00  0.000E+00  1.03987E+03  2.288E+00  5.529E+01  5.593E-01  8.147E-01
   1   13    8     7     2    1.4863E+02  1.9172E+00   1.4672E+02  0.000E+00  0.000E+00  0.000E+00  1.03478E+03  2.279E+00  5.526E+01  6.148E-01  1.040E+00
   1   13    7     7     3    1.4672E+02  1.5809E+00   1.4513E+02  0.000E+00  0.000E+00  0.000E+00  1.02969E+03  2.270E+00  5.521E+01  5.584E-01  9.437E-01
   1   13    6     8     1    1.7255E+02  1.0238E+00   1.7152E+02  0.000E+00  0.000E+00  0.000E+00  1.02484E+03  2.965E+00  4.300E+01  4.382E-01  7.788E-01
   1   13    5     8     2    1.7152E+02  2.5244E-01   1.7127E+02  0.000E+00  0.000E+00  0.000E+00  1.01859E+03  2.961E+00  4.294E+01  4.376E-01  1.923E-01
   1   13    4     8     3    1.7127E+02 -2.2862E+00   1.7356E+02  0.000E+00  0.000E+00  0.000E+00  1.01234E+03  2.968E+00  4.303E+01  4.385E+00 -1.738E-01
   1   13    3     8     4    1.7356E+02 -3.5977E+00   1.7715E+02  0.000E+00  0.000E+00  0.000E+00  1.00611E+03  2.987E+00  4.331E+01  4.413E+00 -2.717E-01
   1   13    2     8     5    1.7715E+02 -2.6042E+00   1.7976E+02  0.000E+00  0.000E+00  0.000E+00  9.99881E+02  3.006E+00  4.359E+01  4.442E+00 -1.954E-01
   1   13    1     8     6    1.7976E+02 -1.9818E+00   1.8174E+02  0.000E+00  0.000E+00  0.000E+00  9.94896E+02  3.021E+00  4.380E+01  2.678E+00 -2.467E-01
   1    8    6     9     1    0.0000E+00  0.0000E+00   0.0000E+00  0.000E+00  0.000E+00  0.000E+00  1.07875E+03  0.000E+00  4.000E+00  0.000E+00  1.000E+00
   1    8    5     9     2    0.0000E+00  0.0000E+00   0.0000E+00  0.000E+00  0.000E+00  0.000E+00  1.07825E+03  0.000E+00  4.000E+00  0.000E+00  1.000E+00





UNSATURATED ZONE PACKAGE VOLUMETRIC BUDGET FOR  TIME STEP    30 STRESS PERIOD    4
  ------------------------------------------------------------------------------



     CUMULATIVE VOLUMES      L**3       RATES FOR THIS TIME STEP      L**3/T
     ------------------                 ------------------------

           IN:                                      IN:
           ---                                      ---
        INFILTRATION =     6759998.6182          INFILTRATION =           0.8475

          OUT:                                     OUT:
          ----                                     ----
              UZF ET =     5917483.8518                UZF ET =           0.7500
        UZF RECHARGE =       73224.0000          UZF RECHARGE =       0.0000E+00

            IN - OUT =      769290.7664              IN - OUT =       9.7500E-02

          STORAGE:                                 STORAGE:
          --------                                 --------
      STORAGE CHANGE =      769290.8345        STORAGE CHANGE =       9.7500E-02

 PERCENT DISCREPANCY IS DIFFERENCE BETWEEN IN-OUT MINUS CHANGE IN STORAGE
 DIVIDED BY THE AVERAGE OF IN AND OUT TIMES 100

 PERCENT DISCREPANCY =           0.00     PERCENT DISCREPANCY =           0.00






1
  VOLUMETRIC BUDGET FOR AGRICULTURAL FIELDS AT  END OF TIME STEP   30, STRESS PERIOD   4
  ------------------------------------------------------------------------------

     CUMULATIVE VOLUMES      L**3       RATES FOR THIS TIME STEP      L**3/T
     ------------------                 ------------------------

           IN:                                      IN:
           ---                                      ---
               AG WELLS  =           0.0000                 AG WELLS  =           0.0000
      DIVERSION SEGMENTS =           0.0000        DIVERSION SEGMENTS =           0.0000
       IRRIGATION PONDS  =           0.0000         IRRIGATION PONDS  =           0.0000
           GW IRRIGATION =           0.0000             GW IRRIGATION =           0.0000
           SW IRRIGATION =           0.0000             SW IRRIGATION =           0.0000
        SYSTEM LOSSES GW =           0.0000          SYSTEM LOSSES GW =           0.0000
        SYSTEM LOSSES SW =           0.0000          SYSTEM LOSSES SW =           0.0000

                TOTAL IN =           0.0000                  TOTAL IN =           0.0000

          OUT:                                     OUT:
          ----                                     ----
               AG WELLS  =           0.0000                 AG WELLS  =           0.0000
      DIVERSION SEGMENTS =           0.0000        DIVERSION SEGMENTS =           0.0000
       IRRIGATION PONDS  =           0.0000         IRRIGATION PONDS  =           0.0000
           GW IRRIGATION =           0.0000             GW IRRIGATION =           0.0000
           SW IRRIGATION =           0.0000             SW IRRIGATION =           0.0000
        SYSTEM LOSSES GW =           0.0000          SYSTEM LOSSES GW =           0.0000
        SYSTEM LOSSES SW =           0.0000          SYSTEM LOSSES SW =           0.0000

               TOTAL OUT =           0.0000                 TOTAL OUT =           0.0000

                IN - OUT =           0.0000                  IN - OUT =           0.0000

     PERCENT DISCREPANCY =           0.00         PERCENT DISCREPANCY =           0.00



1
  VOLUMETRIC BUDGET FOR ENTIRE MODEL AT END OF TIME STEP   30, STRESS PERIOD   4
  ------------------------------------------------------------------------------

     CUMULATIVE VOLUMES      L**3       RATES FOR THIS TIME STEP      L**3/T
     ------------------                 ------------------------

           IN:                                      IN:
           ---                                      ---
             STORAGE     =     4302727.5000               STORAGE     =           0.6663
       CONSTANT HEAD     =           0.0000         CONSTANT HEAD     =           0.0000
     HEAD DEP BOUNDS     =     2295783.0000       HEAD DEP BOUNDS     =           0.2879
      STREAM LEAKAGE     =    93457376.0000        STREAM LEAKAGE     =          12.0729
        UZF RECHARGE     =       73223.9531          UZF RECHARGE     =           0.0000
               GW ET     =           0.0000                 GW ET     =           0.0000
     SURFACE LEAKAGE     =           0.0000       SURFACE LEAKAGE     =           0.0000
           AG WELLS      =           0.0000             AG WELLS      =           0.0000

                TOTAL IN =   100129112.0000                  TOTAL IN =          13.0270

          OUT:                                     OUT:
          ----                                     ----
             STORAGE     =    17554010.0000               STORAGE     =           2.2674
       CONSTANT HEAD     =           0.0000         CONSTANT HEAD     =           0.0000
     HEAD DEP BOUNDS     =     2297699.7500       HEAD DEP BOUNDS     =           0.2902
      STREAM LEAKAGE     =    80281160.0000        STREAM LEAKAGE     =          10.4699
        UZF RECHARGE     =           0.0000          UZF RECHARGE     =           0.0000
               GW ET     =           0.0000                 GW ET     =           0.0000
     SURFACE LEAKAGE     =           0.0000       SURFACE LEAKAGE     =           0.0000
           AG WELLS      =           0.0000             AG WELLS      =           0.0000

               TOTAL OUT =   100132872.0000                 TOTAL OUT =          13.0275

                IN - OUT =       -3760.0000                  IN - OUT =      -4.5586E-04

     PERCENT DISCREPANCY =          -0.00         PERCENT DISCREPANCY =          -0.00






         TIME SUMMARY AT END OF TIME STEP   30 IN STRESS PERIOD    4
                    SECONDS     MINUTES      HOURS       DAYS        YEARS
                    -----------------------------------------------------------
   TIME STEP LENGTH  87667.      1461.1      24.352      1.0147     2.77799E-03
 STRESS PERIOD TIME 2.63000E+06  43833.      730.56      30.440     8.33397E-02
         TOTAL TIME 7.97639E+06 1.32940E+05  2215.7      92.319     0.25276    
1
1
                            STRESS PERIOD NO.    5, LENGTH =   2630000.    
                            -----------------------------------------------

                              NUMBER OF TIME STEPS =    30

                               MULTIPLIER FOR DELT =     1.000

                            INITIAL TIME STEP SIZE =   87666.66    

 REUSING NON-PARAMETER GHB CELLS FROM LAST STRESS PERIOD

      2 GHB CELLS

 REUSING STREAM SEGMENT DATA FROM LAST STRESS PERIOD



            AREAL INFILTRATION RATE
 READING ON UNIT   19 WITH FORMAT: (FREE)              

            1           2           3           4           5           6           7           8           9          10
 ........................................................................................................................
   1   1.0000E-10  2.0000E-10   0.000       0.000       0.000       0.000       0.000       0.000       0.000       0.000    
   2   2.0000E-10  1.0000E-10  2.0000E-10   0.000       0.000      8.0000E-10  8.0000E-10  5.0000E-10   0.000       0.000    
   3    0.000      5.0000E-10  1.0000E-10  1.0000E-10  8.0000E-10  8.0000E-10  5.0000E-10  5.0000E-10   0.000       0.000    
   4   8.0000E-10  5.0000E-10  1.0000E-10  1.0000E-10  1.0000E-10  1.0000E-10  1.0000E-10  1.0000E-10  2.0000E-10   0.000    
   5   8.0000E-10  5.0000E-10  1.0000E-10  1.0000E-10  1.0000E-10  1.0000E-10  1.0000E-10  1.0000E-10  1.0000E-10  1.0000E-10
   6   8.0000E-10  5.0000E-10  5.0000E-10  2.0000E-10  2.0000E-10  1.0000E-10  1.0000E-10  1.0000E-10  1.0000E-10  5.0000E-10
   7   8.0000E-10  5.0000E-10  5.0000E-10  2.0000E-10  2.0000E-10  1.0000E-10  1.0000E-10  2.0000E-10  2.0000E-10   0.000    
   8    0.000      5.0000E-10  5.0000E-10  2.0000E-10  2.0000E-10  1.0000E-10  1.0000E-10  2.0000E-10  5.0000E-10   0.000    
   9    0.000      5.0000E-10  5.0000E-10  2.0000E-10  2.0000E-10  1.0000E-10  1.0000E-10  2.0000E-10  5.0000E-10   0.000    
  10    0.000      5.0000E-10  5.0000E-10  2.0000E-10  2.0000E-10  1.0000E-10  1.0000E-10  2.0000E-10  5.0000E-10  8.0000E-10
  11    0.000      1.0000E-10  1.0000E-10  1.0000E-10  1.0000E-10  1.0000E-10  1.0000E-10  2.0000E-10  5.0000E-10   0.000    
  12   1.0000E-10  1.0000E-10  1.0000E-10  1.0000E-10  1.0000E-10  1.0000E-10  1.0000E-10  1.0000E-10  2.0000E-10   0.000    
  13   1.0000E-10  1.0000E-10  2.0000E-10  2.0000E-10  2.0000E-10  2.0000E-10  2.0000E-10  1.0000E-10  1.0000E-10   0.000    
  14    0.000      2.0000E-10  5.0000E-10  5.0000E-10  5.0000E-10  5.0000E-10  5.0000E-10  2.0000E-10  1.0000E-10   0.000    
  15    0.000       0.000      8.0000E-10  8.0000E-10  8.0000E-10  8.0000E-10   0.000       0.000       0.000       0.000    

                  ET RATE =  2.500000E-08

 USING ET EXTINCTION DEPTH FROM PREVIOUS STRESS PERIOD. CURRENT PERIOD IS:       5

 USING EXTINCTION WATER CONTENT FROM PREVIOUS STRESS PERIOD. CURRENT PERIOD IS:       5

 USING AIR ENTRY PRESSURE FROM PREVIOUS STRESS PERIOD. CURRENT PERIOD IS:       5

 USING ROOT PRESSURE HEAD FROM PREVIOUS STRESS PERIOD. CURRENT PERIOD IS:       5

 USING ROOT ACTIVITY FROM PREVIOUS STRESS PERIOD. CURRENT PERIOD IS:       5

 PROCESSING AG STRESS PERIOD DATA

 READING AG STRESS PERIOD DATA

 READING IRRIGATION SEGMENT

 READING IRRIGATION WELL

 READING SUPPLEMENTAL WELL

 NO IRRPOND OR REUSING IRRPOND DATA FROM LAST STRESS PERIOD

 END PROCESSING AG STRESS PERIOD DATA OPTIONS
 
 SOLVING FOR HEAD 
                                                   Max.-Head-Change                         Max.-Flux-Residual
  Residual-Control   Outer-Iter.   Inner-Iter.     Column Row Layer    Maximum-Head-Change  Column Row Layer    Maximum-Flux-Residual          L2-NORM 
          0                 1           2             4   13     1      -0.7750449118E-02       4   13    1        -0.4441106684E+00      0.7888582185E+00
          0                 2           2             4    7     1      -0.1159012253E-01       5    6    1        -0.6253668527E+00      0.1529289568E+01
          0                 3           2             4    7     1       0.9380805214E-02       5    6    1         0.5180915519E+00      0.1268746504E+01
          0                 4           2             4    7     1      -0.3732750847E-03       5    6    1        -0.2119014801E-01      0.5189258646E-01
          0                 5           1             4    7     1       0.4602641438E-05       5    6    1         0.2685444611E-03      0.6577529309E-03

    ------------------------------------------------
       NWT REQUIRED            5 OUTER ITERATIONS 
       AND A TOTAL OF          9 INNER ITERATIONS.
    ------------------------------------------------

 NO OUTPUT CONTROL FOR STRESS PERIOD    5   TIME STEP    1
 
 SOLVING FOR HEAD 
                                                   Max.-Head-Change                         Max.-Flux-Residual
  Residual-Control   Outer-Iter.   Inner-Iter.     Column Row Layer    Maximum-Head-Change  Column Row Layer    Maximum-Flux-Residual          L2-NORM 
          0                 1           2             4   13     1      -0.5476458971E-02       4   13    1        -0.3139453813E+00      0.5967163730E+00
          0                 2           2             4   13     1       0.5279975775E-03       4   13    1         0.3112112568E-01      0.5841331692E-01
          0                 3           1             4   13     1      -0.3551120771E-04       4   13    1        -0.2152028806E-02      0.3970870325E-02

    ------------------------------------------------
       NWT REQUIRED            3 OUTER ITERATIONS 
       AND A TOTAL OF          5 INNER ITERATIONS.
    ------------------------------------------------

 OUTPUT CONTROL FOR STRESS PERIOD    5   TIME STEP    2
    PRINT BUDGET
    SAVE BUDGET
 UBDSV1 SAVING "         STORAGE" ON UNIT 102 AT TIME STEP 2, STRESS PERIOD 5
 UBDSV2 SAVING "   CONSTANT HEAD" ON UNIT 102 AT TIME STEP 2, STRESS PERIOD 5
 UBDSV1 SAVING "FLOW RIGHT FACE " ON UNIT 102 AT TIME STEP 2, STRESS PERIOD 5
 UBDSV1 SAVING "FLOW FRONT FACE " ON UNIT 102 AT TIME STEP 2, STRESS PERIOD 5

  HEAD DEP BOUNDS   PERIOD    5   STEP     2
 BOUNDARY      1   LAYER   1   ROW    13   COL     1   RATE   -0.289920    
 BOUNDARY      2   LAYER   1   ROW    14   COL     9   RATE    0.287882    



 STREAM LISTING     PERIOD      5   STEP        2

 LAYER ROW COL. STREAM  RCH.  FLOW INTO     FLOW TO   FLOW OUT OF   OVRLND.     DIRECT     STREAM       STREAM     STREAM     STREAM   STREAMBED  STREAMBED
                SEG.NO.  NO.  STRM. RCH.    AQUIFER    STRM. RCH.    RUNOFF     PRECIP       ET          HEAD       DEPTH      WIDTH   CONDCTNC.   GRADIENT

   1    1    1     1     1    1.0500E+01  1.5271E-01   1.0347E+01  0.000E+00  0.000E+00  0.000E+00  1.09396E+03  9.109E-01  8.677E+00  3.905E-02  1.304E+00
   1    2    2     1     2    1.0347E+01  2.3504E-01   1.0112E+01  0.000E+00  0.000E+00  0.000E+00  1.08896E+03  9.059E-01  8.597E+00  6.018E-02  1.302E+00
   1    3    3     1     3    1.0112E+01  1.9904E-01   9.9132E+00  0.000E+00  0.000E+00  0.000E+00  1.08332E+03  9.003E-01  8.505E+00  5.103E-02  1.300E+00
   1    3    4     1     4    9.9132E+00  1.8195E-01   9.7312E+00  0.000E+00  0.000E+00  0.000E+00  1.07830E+03  8.947E-01  8.417E+00  4.672E-02  1.298E+00
   1    4    5     2     1    7.7312E+00  2.8007E-01   7.4512E+00  0.000E+00  0.000E+00  0.000E+00  1.07252E+03  5.907E-01  1.200E+01  7.800E-02  1.197E+00
   1    5    6     2     2    7.4512E+00  2.1474E-01   7.2364E+00  0.000E+00  0.000E+00  0.000E+00  1.06709E+03  5.790E-01  1.200E+01  6.000E-02  1.193E+00
   1    6    6     2     3    7.2364E+00  2.1413E-01   7.0223E+00  0.000E+00  0.000E+00  0.000E+00  1.06236E+03  5.688E-01  1.200E+01  6.000E-02  1.190E+00
   1    7    6     2     4    7.0223E+00  2.1351E-01   6.8088E+00  0.000E+00  0.000E+00  0.000E+00  1.05763E+03  5.585E-01  1.200E+01  6.000E-02  1.186E+00
   1    8    6     2     5    6.8088E+00  2.1289E-01   6.5959E+00  0.000E+00  0.000E+00  0.000E+00  1.05291E+03  5.481E-01  1.200E+01  6.000E-02  1.183E+00
   1    3    5     3     1    2.0000E+00  2.8252E-01   1.7175E+00  0.000E+00  0.000E+00  0.000E+00  1.07555E+03  1.909E+00  9.636E+00  7.227E-02  1.955E+00
   1    3    6     3     2    1.7175E+00  2.4905E-01   1.4684E+00  0.000E+00  0.000E+00  0.000E+00  1.07264E+03  1.727E+00  8.909E+00  6.682E-02  1.864E+00
   1    3    7     3     3    1.4684E+00  1.9718E-01   1.2712E+00  0.000E+00  0.000E+00  0.000E+00  1.06987E+03  1.555E+00  8.218E+00  5.547E-02  1.777E+00
   1    4    8     3     4    1.2712E+00  2.2567E-01   1.0456E+00  0.000E+00  0.000E+00  0.000E+00  1.06682E+03  1.364E+00  7.455E+00  6.709E-02  1.682E+00
   1    5    8     3     5    1.0456E+00  1.5790E-01   8.8768E-01  0.000E+00  0.000E+00  0.000E+00  1.06362E+03  1.164E+00  6.655E+00  4.991E-02  1.582E+00
   1    6    8     3     6    8.8768E-01  5.5980E-02   8.3170E-01  0.000E+00  0.000E+00  0.000E+00  1.06158E+03  1.036E+00  6.145E+00  1.844E-02  1.518E+00
   1    5   10     4     1    1.0000E+01  9.0919E-02   9.9091E+00  0.000E+00  0.000E+00  0.000E+00  1.07836E+03  6.368E-01  1.000E+01  2.500E-02  1.212E+00
   1    5    9     4     2    9.9091E+00  1.8158E-01   9.7275E+00  0.000E+00  0.000E+00  0.000E+00  1.07154E+03  6.315E-01  1.000E+01  5.000E-02  1.211E+00
   1    6    8     4     3    9.7275E+00  1.2689E-01   9.6006E+00  0.000E+00  0.000E+00  0.000E+00  1.06381E+03  6.256E-01  1.000E+01  3.500E-02  1.209E+00
   1    6    8     5     1    1.0432E+01  2.2686E-01   1.0205E+01  0.000E+00  0.000E+00  0.000E+00  1.05868E+03  6.790E-01  1.542E+01  6.166E-02  1.226E+00
   1    7    7     5     2    1.0205E+01  2.7894E-01   9.9265E+00  0.000E+00  0.000E+00  0.000E+00  1.05417E+03  6.732E-01  1.519E+01  7.594E-02  1.224E+00
   1    8    7     5     3    9.9265E+00  1.9221E-01   9.7343E+00  0.000E+00  0.000E+00  0.000E+00  1.04992E+03  6.676E-01  1.497E+01  5.241E-02  1.223E+00
   1    8    6     5     4    9.7343E+00  1.3577E-01   9.5985E+00  0.000E+00  0.000E+00  0.000E+00  1.04691E+03  6.637E-01  1.482E+01  3.706E-02  1.221E+00
   1    9    6     6     1    1.6194E+01  2.3621E-01   1.5958E+01  0.000E+00  0.000E+00  0.000E+00  1.04366E+03  9.369E-01  1.200E+01  6.000E-02  1.312E+00
   1   10    7     6     2    1.5958E+01  2.3572E-01   1.5723E+01  0.000E+00  0.000E+00  0.000E+00  1.03911E+03  9.286E-01  1.200E+01  6.000E-02  1.310E+00
   1   11    7     6     3    1.5723E+01  2.3522E-01   1.5487E+01  0.000E+00  0.000E+00  0.000E+00  1.03456E+03  9.203E-01  1.200E+01  6.000E-02  1.307E+00
   1   12    7     6     4    1.5487E+01  2.3472E-01   1.5253E+01  0.000E+00  0.000E+00  0.000E+00  1.03000E+03  9.120E-01  1.200E+01  6.000E-02  1.304E+00
   1   13    7     6     5    1.5253E+01 -9.5691E-03   1.5262E+01  0.000E+00  0.000E+00  0.000E+00  1.02682E+03  9.079E-01  1.200E+01  2.400E-01 -1.329E-02
   1   14    9     7     1    1.5000E+02  1.3670E+00   1.4863E+02  0.000E+00  0.000E+00  0.000E+00  1.03987E+03  2.288E+00  5.529E+01  5.593E-01  8.147E-01
   1   13    8     7     2    1.4863E+02  1.9171E+00   1.4672E+02  0.000E+00  0.000E+00  0.000E+00  1.03478E+03  2.279E+00  5.526E+01  6.148E-01  1.039E+00
   1   13    7     7     3    1.4672E+02  1.5814E+00   1.4513E+02  0.000E+00  0.000E+00  0.000E+00  1.02969E+03  2.270E+00  5.521E+01  5.584E-01  9.440E-01
   1   13    6     8     1    1.6040E+02  9.6279E-01   1.5943E+02  0.000E+00  0.000E+00  0.000E+00  1.02476E+03  2.885E+00  4.184E+01  4.263E-01  7.528E-01
   1   13    5     8     2    1.5943E+02  2.1203E-01   1.5922E+02  0.000E+00  0.000E+00  0.000E+00  1.01851E+03  2.881E+00  4.178E+01  4.257E-01  1.660E-01
   1   13    4     8     3    1.5922E+02 -2.5063E+00   1.6173E+02  0.000E+00  0.000E+00  0.000E+00  1.01226E+03  2.889E+00  4.189E+01  4.269E+00 -1.957E-01
   1   13    3     8     4    1.6173E+02 -3.7857E+00   1.6551E+02  0.000E+00  0.000E+00  0.000E+00  1.00604E+03  2.910E+00  4.220E+01  4.300E+00 -2.935E-01
   1   13    2     8     5    1.6551E+02 -2.8086E+00   1.6832E+02  0.000E+00  0.000E+00  0.000E+00  9.99807E+02  2.932E+00  4.251E+01  4.332E+00 -2.161E-01
   1   13    1     8     6    1.6832E+02 -2.1075E+00   1.7043E+02  0.000E+00  0.000E+00  0.000E+00  9.94823E+02  2.948E+00  4.275E+01  2.614E+00 -2.688E-01
   1    8    6     9     1    2.2132E-07  0.0000E+00   2.2132E-07  0.000E+00  0.000E+00  0.000E+00  1.07875E+03  5.785E-05  4.000E+00  0.000E+00  1.000E+00
   1    8    5     9     2    2.2132E-07  0.0000E+00   2.2132E-07  0.000E+00  0.000E+00  0.000E+00  1.07825E+03  5.785E-05  4.000E+00  0.000E+00  1.000E+00



 UBDSV3 SAVING "           GW ET" ON UNIT  61 AT TIME STEP 2, STRESS PERIOD 5
 UBDSV3 SAVING "    UZF RECHARGE" ON UNIT  61 AT TIME STEP 2, STRESS PERIOD 5
 UBDSV3 SAVING " SURFACE LEAKAGE" ON UNIT  61 AT TIME STEP 2, STRESS PERIOD 5
 UBDSV3 SAVING "       HORT+DUNN" ON UNIT  61 AT TIME STEP 2, STRESS PERIOD 5
 UBDSV3 SAVING "  STORAGE CHANGE" ON UNIT  61 AT TIME STEP 2, STRESS PERIOD 5


UNSATURATED ZONE PACKAGE VOLUMETRIC BUDGET FOR  TIME STEP     2 STRESS PERIOD    5
  ------------------------------------------------------------------------------



     CUMULATIVE VOLUMES      L**3       RATES FOR THIS TIME STEP      L**3/T
     ------------------                 ------------------------

           IN:                                      IN:
           ---                                      ---
        INFILTRATION =     7563475.2699          INFILTRATION =           0.8475

          OUT:                                     OUT:
          ----                                     ----
              UZF ET =     7406350.0660                UZF ET =           4.5966
        UZF RECHARGE =       73224.0000          UZF RECHARGE =       0.0000E+00

            IN - OUT =       83901.2039              IN - OUT =          -3.7491

          STORAGE:                                 STORAGE:
          --------                                 --------
      STORAGE CHANGE =       83900.5730        STORAGE CHANGE =          -3.7491

 PERCENT DISCREPANCY IS DIFFERENCE BETWEEN IN-OUT MINUS CHANGE IN STORAGE
 DIVIDED BY THE AVERAGE OF IN AND OUT TIMES 100

 PERCENT DISCREPANCY =           0.00     PERCENT DISCREPANCY =           0.00






 

            AG WELLS      PERIOD    5   STEP   2
 AG WELL      1   LAYER   1   ROW     6   COL     4   RATE     0.00000    
 AG WELL      2   LAYER   1   ROW     6   COL     5   RATE     0.00000    
 AG WELL      3   LAYER   1   ROW     7   COL     4   RATE     0.00000    
 AG WELL      4   LAYER   1   ROW     7   COL     5   RATE     0.00000    
 AG WELL      5   LAYER   1   ROW     8   COL     4   RATE     0.00000    
 AG WELL      6   LAYER   1   ROW     8   COL     5   RATE     0.00000    
 
 

   DIVERSION SEGMENTS     PERIOD    5   STEP   2
 SEGMENT      9   RATE    2.213197E-07
 
 

        SW IRRIGATION     PERIOD    5   STEP   2
 SEGMENT      9   ROW     6   COL     4   RATE    3.688735E-08
 SEGMENT      9   ROW     6   COL     5   RATE    3.688735E-08
 SEGMENT      9   ROW     7   COL     4   RATE    3.688735E-08
 SEGMENT      9   ROW     7   COL     5   RATE    3.688735E-08
 SEGMENT      9   ROW     8   COL     4   RATE    3.688735E-08
 SEGMENT      9   ROW     8   COL     5   RATE    3.688735E-08
 
 

        GW IRRIGATION     PERIOD    5   STEP   2
 AG WELL      1   ROW     6   COL     4   RATE     0.00000    
 AG WELL      2   ROW     6   COL     5   RATE     0.00000    
 AG WELL      3   ROW     7   COL     4   RATE     0.00000    
 AG WELL      4   ROW     7   COL     5   RATE     0.00000    
 AG WELL      5   ROW     8   COL     4   RATE     0.00000    
 AG WELL      6   ROW     8   COL     5   RATE     0.00000    
 
1
  VOLUMETRIC BUDGET FOR AGRICULTURAL FIELDS AT  END OF TIME STEP    2, STRESS PERIOD   5
  ------------------------------------------------------------------------------

     CUMULATIVE VOLUMES      L**3       RATES FOR THIS TIME STEP      L**3/T
     ------------------                 ------------------------

           IN:                                      IN:
           ---                                      ---
               AG WELLS  =       76629.9531                 AG WELLS  =           0.0000
      DIVERSION SEGMENTS =      578240.1250        DIVERSION SEGMENTS =       2.2132E-07
       IRRIGATION PONDS  =           0.0000         IRRIGATION PONDS  =           0.0000
           GW IRRIGATION =           0.0000             GW IRRIGATION =           0.0000
           SW IRRIGATION =           0.0000             SW IRRIGATION =           0.0000
        SYSTEM LOSSES GW =           0.0000          SYSTEM LOSSES GW =           0.0000
        SYSTEM LOSSES SW =           0.0000          SYSTEM LOSSES SW =           0.0000

                TOTAL IN =      654870.0625                  TOTAL IN =       2.2132E-07

          OUT:                                     OUT:
          ----                                     ----
               AG WELLS  =           0.0000                 AG WELLS  =           0.0000
      DIVERSION SEGMENTS =           0.0000        DIVERSION SEGMENTS =           0.0000
       IRRIGATION PONDS  =           0.0000         IRRIGATION PONDS  =           0.0000
           GW IRRIGATION =       76629.9531             GW IRRIGATION =           0.0000
           SW IRRIGATION =      578251.6875             SW IRRIGATION =       2.2132E-07
        SYSTEM LOSSES GW =           0.0000          SYSTEM LOSSES GW =           0.0000
        SYSTEM LOSSES SW =           0.0000          SYSTEM LOSSES SW =           0.0000

               TOTAL OUT =      654881.6250                 TOTAL OUT =       2.2132E-07

                IN - OUT =         -11.5625                  IN - OUT =      -4.4196E-12

     PERCENT DISCREPANCY =          -0.00         PERCENT DISCREPANCY =          -0.00



1
  VOLUMETRIC BUDGET FOR ENTIRE MODEL AT END OF TIME STEP    2, STRESS PERIOD   5
  ------------------------------------------------------------------------------

     CUMULATIVE VOLUMES      L**3       RATES FOR THIS TIME STEP      L**3/T
     ------------------                 ------------------------

           IN:                                      IN:
           ---                                      ---
             STORAGE     =     4675096.5000               STORAGE     =           1.4389
       CONSTANT HEAD     =           0.0000         CONSTANT HEAD     =           0.0000
     HEAD DEP BOUNDS     =     2346258.2500       HEAD DEP BOUNDS     =           0.2879
      STREAM LEAKAGE     =    95426240.0000        STREAM LEAKAGE     =          11.2877
        UZF RECHARGE     =       73223.9531          UZF RECHARGE     =           0.0000
               GW ET     =           0.0000                 GW ET     =           0.0000
     SURFACE LEAKAGE     =           0.0000       SURFACE LEAKAGE     =           0.0000
           AG WELLS      =           0.0000             AG WELLS      =           0.0000

                TOTAL IN =   102520816.0000                  TOTAL IN =          13.0145

          OUT:                                     OUT:
          ----                                     ----
             STORAGE     =    17798670.0000               STORAGE     =           1.5070
       CONSTANT HEAD     =           0.0000         CONSTANT HEAD     =           0.0000
     HEAD DEP BOUNDS     =     2348540.7500       HEAD DEP BOUNDS     =           0.2899
      STREAM LEAKAGE     =    82300744.0000        STREAM LEAKAGE     =          11.2176
        UZF RECHARGE     =           0.0000          UZF RECHARGE     =           0.0000
               GW ET     =           0.0000                 GW ET     =           0.0000
     SURFACE LEAKAGE     =           0.0000       SURFACE LEAKAGE     =           0.0000
           AG WELLS      =       76629.9531             AG WELLS      =           0.0000

               TOTAL OUT =   102524584.0000                 TOTAL OUT =          13.0145

                IN - OUT =       -3768.0000                  IN - OUT =      -1.7166E-05

     PERCENT DISCREPANCY =          -0.00         PERCENT DISCREPANCY =          -0.00






         TIME SUMMARY AT END OF TIME STEP    2 IN STRESS PERIOD    5
                    SECONDS     MINUTES      HOURS       DAYS        YEARS
                    -----------------------------------------------------------
   TIME STEP LENGTH  87667.      1461.1      24.352      1.0147     2.77799E-03
 STRESS PERIOD TIME 1.75333E+05  2922.2      48.704      2.0293     5.55598E-03
         TOTAL TIME 8.15173E+06 1.35862E+05  2264.4      94.349     0.25831    
1
 
 SOLVING FOR HEAD 
                                                   Max.-Head-Change                         Max.-Flux-Residual
  Residual-Control   Outer-Iter.   Inner-Iter.     Column Row Layer    Maximum-Head-Change  Column Row Layer    Maximum-Flux-Residual          L2-NORM 
          0                 1           2             4   13     1      -0.4967042221E-02       4   13    1        -0.2846171547E+00      0.5587235517E+00
          0                 2           2             4    7     1      -0.1159254344E-01       5    6    1        -0.6256420421E+00      0.1531170089E+01
          0                 3           2             4    7     1       0.1201982967E-01       5    6    1         0.6637947446E+00      0.1625650276E+01
          0                 4           2             4    7     1      -0.4782805368E-03       5    6    1        -0.2714916458E-01      0.6649028928E-01
          0                 5           1             4    7     1       0.5897402331E-05       5    6    1         0.3440635355E-03      0.8429536968E-03

    ------------------------------------------------
       NWT REQUIRED            5 OUTER ITERATIONS 
       AND A TOTAL OF          9 INNER ITERATIONS.
    ------------------------------------------------

 OUTPUT CONTROL FOR STRESS PERIOD    5   TIME STEP    3
    PRINT BUDGET
    SAVE BUDGET
 UBDSV1 SAVING "         STORAGE" ON UNIT 102 AT TIME STEP 3, STRESS PERIOD 5
 UBDSV2 SAVING "   CONSTANT HEAD" ON UNIT 102 AT TIME STEP 3, STRESS PERIOD 5
 UBDSV1 SAVING "FLOW RIGHT FACE " ON UNIT 102 AT TIME STEP 3, STRESS PERIOD 5
 UBDSV1 SAVING "FLOW FRONT FACE " ON UNIT 102 AT TIME STEP 3, STRESS PERIOD 5

  HEAD DEP BOUNDS   PERIOD    5   STEP     3
 BOUNDARY      1   LAYER   1   ROW    13   COL     1   RATE   -0.289802    
 BOUNDARY      2   LAYER   1   ROW    14   COL     9   RATE    0.287883    



 STREAM LISTING     PERIOD      5   STEP        3

 LAYER ROW COL. STREAM  RCH.  FLOW INTO     FLOW TO   FLOW OUT OF   OVRLND.     DIRECT     STREAM       STREAM     STREAM     STREAM   STREAMBED  STREAMBED
                SEG.NO.  NO.  STRM. RCH.    AQUIFER    STRM. RCH.    RUNOFF     PRECIP       ET          HEAD       DEPTH      WIDTH   CONDCTNC.   GRADIENT

   1    1    1     1     1    1.0500E+01  1.5271E-01   1.0347E+01  0.000E+00  0.000E+00  0.000E+00  1.09396E+03  9.109E-01  8.677E+00  3.905E-02  1.304E+00
   1    2    2     1     2    1.0347E+01  2.3504E-01   1.0112E+01  0.000E+00  0.000E+00  0.000E+00  1.08896E+03  9.059E-01  8.597E+00  6.018E-02  1.302E+00
   1    3    3     1     3    1.0112E+01  1.9904E-01   9.9132E+00  0.000E+00  0.000E+00  0.000E+00  1.08332E+03  9.003E-01  8.505E+00  5.103E-02  1.300E+00
   1    3    4     1     4    9.9132E+00  1.8195E-01   9.7312E+00  0.000E+00  0.000E+00  0.000E+00  1.07830E+03  8.947E-01  8.417E+00  4.672E-02  1.298E+00
   1    4    5     2     1    7.7312E+00  2.8007E-01   7.4512E+00  0.000E+00  0.000E+00  0.000E+00  1.07252E+03  5.907E-01  1.200E+01  7.800E-02  1.197E+00
   1    5    6     2     2    7.4512E+00  2.1474E-01   7.2364E+00  0.000E+00  0.000E+00  0.000E+00  1.06709E+03  5.790E-01  1.200E+01  6.000E-02  1.193E+00
   1    6    6     2     3    7.2364E+00  2.1413E-01   7.0223E+00  0.000E+00  0.000E+00  0.000E+00  1.06236E+03  5.688E-01  1.200E+01  6.000E-02  1.190E+00
   1    7    6     2     4    7.0223E+00  2.1351E-01   6.8088E+00  0.000E+00  0.000E+00  0.000E+00  1.05763E+03  5.585E-01  1.200E+01  6.000E-02  1.186E+00
   1    8    6     2     5    6.8088E+00  2.1289E-01   6.5959E+00  0.000E+00  0.000E+00  0.000E+00  1.05291E+03  5.481E-01  1.200E+01  6.000E-02  1.183E+00
   1    3    5     3     1    2.0000E+00  2.8252E-01   1.7175E+00  0.000E+00  0.000E+00  0.000E+00  1.07555E+03  1.909E+00  9.636E+00  7.227E-02  1.955E+00
   1    3    6     3     2    1.7175E+00  2.4905E-01   1.4684E+00  0.000E+00  0.000E+00  0.000E+00  1.07264E+03  1.727E+00  8.909E+00  6.682E-02  1.864E+00
   1    3    7     3     3    1.4684E+00  1.9718E-01   1.2712E+00  0.000E+00  0.000E+00  0.000E+00  1.06987E+03  1.555E+00  8.218E+00  5.547E-02  1.777E+00
   1    4    8     3     4    1.2712E+00  2.2567E-01   1.0456E+00  0.000E+00  0.000E+00  0.000E+00  1.06682E+03  1.364E+00  7.455E+00  6.709E-02  1.682E+00
   1    5    8     3     5    1.0456E+00  1.5790E-01   8.8768E-01  0.000E+00  0.000E+00  0.000E+00  1.06362E+03  1.164E+00  6.655E+00  4.991E-02  1.582E+00
   1    6    8     3     6    8.8768E-01  5.5980E-02   8.3170E-01  0.000E+00  0.000E+00  0.000E+00  1.06158E+03  1.036E+00  6.145E+00  1.844E-02  1.518E+00
   1    5   10     4     1    1.0000E+01  9.0919E-02   9.9091E+00  0.000E+00  0.000E+00  0.000E+00  1.07836E+03  6.368E-01  1.000E+01  2.500E-02  1.212E+00
   1    5    9     4     2    9.9091E+00  1.8158E-01   9.7275E+00  0.000E+00  0.000E+00  0.000E+00  1.07154E+03  6.315E-01  1.000E+01  5.000E-02  1.211E+00
   1    6    8     4     3    9.7275E+00  1.2689E-01   9.6006E+00  0.000E+00  0.000E+00  0.000E+00  1.06381E+03  6.256E-01  1.000E+01  3.500E-02  1.209E+00
   1    6    8     5     1    1.0432E+01  2.2686E-01   1.0205E+01  0.000E+00  0.000E+00  0.000E+00  1.05868E+03  6.790E-01  1.542E+01  6.166E-02  1.226E+00
   1    7    7     5     2    1.0205E+01  2.7894E-01   9.9265E+00  0.000E+00  0.000E+00  0.000E+00  1.05417E+03  6.732E-01  1.519E+01  7.594E-02  1.224E+00
   1    8    7     5     3    9.9265E+00  1.9221E-01   9.7343E+00  0.000E+00  0.000E+00  0.000E+00  1.04992E+03  6.676E-01  1.497E+01  5.241E-02  1.223E+00
   1    8    6     5     4    9.7343E+00  1.3577E-01   9.5985E+00  0.000E+00  0.000E+00  0.000E+00  1.04691E+03  6.637E-01  1.482E+01  3.706E-02  1.221E+00
   1    9    6     6     1    1.2474E+01  2.2801E-01   1.2246E+01  0.000E+00  0.000E+00  0.000E+00  1.04353E+03  8.002E-01  1.200E+01  6.000E-02  1.267E+00
   1   10    7     6     2    1.2246E+01  2.2748E-01   1.2019E+01  0.000E+00  0.000E+00  0.000E+00  1.03897E+03  7.913E-01  1.200E+01  6.000E-02  1.264E+00
   1   11    7     6     3    1.2019E+01  2.2694E-01   1.1792E+01  0.000E+00  0.000E+00  0.000E+00  1.03442E+03  7.824E-01  1.200E+01  6.000E-02  1.261E+00
   1   12    7     6     4    1.1792E+01  2.2640E-01   1.1566E+01  0.000E+00  0.000E+00  0.000E+00  1.02986E+03  7.734E-01  1.200E+01  6.000E-02  1.258E+00
   1   13    7     6     5    1.1566E+01 -4.2617E-02   1.1608E+01  0.000E+00  0.000E+00  0.000E+00  1.02668E+03  7.698E-01  1.200E+01  2.400E-01 -5.919E-02
   1   14    9     7     1    1.5000E+02  1.3670E+00   1.4863E+02  0.000E+00  0.000E+00  0.000E+00  1.03987E+03  2.288E+00  5.529E+01  5.593E-01  8.147E-01
   1   13    8     7     2    1.4863E+02  1.9170E+00   1.4672E+02  0.000E+00  0.000E+00  0.000E+00  1.03478E+03  2.279E+00  5.526E+01  6.148E-01  1.039E+00
   1   13    7     7     3    1.4672E+02  1.5817E+00   1.4513E+02  0.000E+00  0.000E+00  0.000E+00  1.02969E+03  2.270E+00  5.521E+01  5.584E-01  9.442E-01
   1   13    6     8     1    1.5674E+02  9.4443E-01   1.5580E+02  0.000E+00  0.000E+00  0.000E+00  1.02474E+03  2.860E+00  4.148E+01  4.227E-01  7.448E-01
   1   13    5     8     2    1.5580E+02  2.0001E-01   1.5560E+02  0.000E+00  0.000E+00  0.000E+00  1.01848E+03  2.856E+00  4.142E+01  4.221E-01  1.580E-01
   1   13    4     8     3    1.5560E+02 -2.5639E+00   1.5816E+02  0.000E+00  0.000E+00  0.000E+00  1.01224E+03  2.865E+00  4.154E+01  4.233E+00 -2.019E-01
   1   13    3     8     4    1.5816E+02 -3.8339E+00   1.6200E+02  0.000E+00  0.000E+00  0.000E+00  1.00601E+03  2.886E+00  4.185E+01  4.265E+00 -2.996E-01
   1   13    2     8     5    1.6200E+02 -2.8614E+00   1.6486E+02  0.000E+00  0.000E+00  0.000E+00  9.99784E+02  2.909E+00  4.218E+01  4.298E+00 -2.219E-01
   1   13    1     8     6    1.6486E+02 -2.1420E+00   1.6700E+02  0.000E+00  0.000E+00  0.000E+00  9.94800E+02  2.925E+00  4.242E+01  2.594E+00 -2.753E-01
   1    8    6     9     1    3.7200E+00  0.0000E+00   3.7200E+00  0.000E+00  0.000E+00  0.000E+00  1.08000E+03  1.252E+00  4.000E+00  0.000E+00  1.417E+00
   1    8    5     9     2    3.7200E+00  0.0000E+00   3.7200E+00  0.000E+00  0.000E+00  0.000E+00  1.07950E+03  1.252E+00  4.000E+00  0.000E+00  1.417E+00



 UBDSV3 SAVING "           GW ET" ON UNIT  61 AT TIME STEP 3, STRESS PERIOD 5
 UBDSV3 SAVING "    UZF RECHARGE" ON UNIT  61 AT TIME STEP 3, STRESS PERIOD 5
 UBDSV3 SAVING " SURFACE LEAKAGE" ON UNIT  61 AT TIME STEP 3, STRESS PERIOD 5
 UBDSV3 SAVING "       HORT+DUNN" ON UNIT  61 AT TIME STEP 3, STRESS PERIOD 5
 UBDSV3 SAVING "  STORAGE CHANGE" ON UNIT  61 AT TIME STEP 3, STRESS PERIOD 5


UNSATURATED ZONE PACKAGE VOLUMETRIC BUDGET FOR  TIME STEP     3 STRESS PERIOD    5
  ------------------------------------------------------------------------------



     CUMULATIVE VOLUMES      L**3       RATES FOR THIS TIME STEP      L**3/T
     ------------------                 ------------------------

           IN:                                      IN:
           ---                                      ---
        INFILTRATION =     7963899.2892          INFILTRATION =           4.5676

          OUT:                                     OUT:
          ----                                     ----
              UZF ET =     7806767.5697                UZF ET =           4.5675
        UZF RECHARGE =       73224.0000          UZF RECHARGE =       0.0000E+00

            IN - OUT =       83907.7195              IN - OUT =       7.4029E-05

          STORAGE:                                 STORAGE:
          --------                                 --------
      STORAGE CHANGE =       83907.1106        STORAGE CHANGE =       7.4573E-05

 PERCENT DISCREPANCY IS DIFFERENCE BETWEEN IN-OUT MINUS CHANGE IN STORAGE
 DIVIDED BY THE AVERAGE OF IN AND OUT TIMES 100

 PERCENT DISCREPANCY =           0.00     PERCENT DISCREPANCY =          -0.00






 

            AG WELLS      PERIOD    5   STEP   3
 AG WELL      1   LAYER   1   ROW     6   COL     4   RATE     0.00000    
 AG WELL      2   LAYER   1   ROW     6   COL     5   RATE     0.00000    
 AG WELL      3   LAYER   1   ROW     7   COL     4   RATE     0.00000    
 AG WELL      4   LAYER   1   ROW     7   COL     5   RATE     0.00000    
 AG WELL      5   LAYER   1   ROW     8   COL     4   RATE     0.00000    
 AG WELL      6   LAYER   1   ROW     8   COL     5   RATE     0.00000    
 
 

   DIVERSION SEGMENTS     PERIOD    5   STEP   3
 SEGMENT      9   RATE     3.72000    
 
 

        SW IRRIGATION     PERIOD    5   STEP   3
 SEGMENT      9   ROW     6   COL     4   RATE    0.620012    
 SEGMENT      9   ROW     6   COL     5   RATE    0.620012    
 SEGMENT      9   ROW     7   COL     4   RATE    0.620012    
 SEGMENT      9   ROW     7   COL     5   RATE    0.620012    
 SEGMENT      9   ROW     8   COL     4   RATE    0.620012    
 SEGMENT      9   ROW     8   COL     5   RATE    0.620012    
 
 

        GW IRRIGATION     PERIOD    5   STEP   3
 AG WELL      1   ROW     6   COL     4   RATE     0.00000    
 AG WELL      2   ROW     6   COL     5   RATE     0.00000    
 AG WELL      3   ROW     7   COL     4   RATE     0.00000    
 AG WELL      4   ROW     7   COL     5   RATE     0.00000    
 AG WELL      5   ROW     8   COL     4   RATE     0.00000    
 AG WELL      6   ROW     8   COL     5   RATE     0.00000    
 
1
  VOLUMETRIC BUDGET FOR AGRICULTURAL FIELDS AT  END OF TIME STEP    3, STRESS PERIOD   5
  ------------------------------------------------------------------------------

     CUMULATIVE VOLUMES      L**3       RATES FOR THIS TIME STEP      L**3/T
     ------------------                 ------------------------

           IN:                                      IN:
           ---                                      ---
               AG WELLS  =       76629.9531                 AG WELLS  =           0.0000
      DIVERSION SEGMENTS =      904360.1250        DIVERSION SEGMENTS =           3.7200
       IRRIGATION PONDS  =           0.0000         IRRIGATION PONDS  =           0.0000
           GW IRRIGATION =           0.0000             GW IRRIGATION =           0.0000
           SW IRRIGATION =           0.0000             SW IRRIGATION =           0.0000
        SYSTEM LOSSES GW =           0.0000          SYSTEM LOSSES GW =           0.0000
        SYSTEM LOSSES SW =           0.0000          SYSTEM LOSSES SW =           0.0000

                TOTAL IN =      980990.0625                  TOTAL IN =           3.7200

          OUT:                                     OUT:
          ----                                     ----
               AG WELLS  =           0.0000                 AG WELLS  =           0.0000
      DIVERSION SEGMENTS =           0.0000        DIVERSION SEGMENTS =           0.0000
       IRRIGATION PONDS  =           0.0000         IRRIGATION PONDS  =           0.0000
           GW IRRIGATION =       76629.9531             GW IRRIGATION =           0.0000
           SW IRRIGATION =      904378.2500             SW IRRIGATION =           3.7201
        SYSTEM LOSSES GW =           0.0000          SYSTEM LOSSES GW =           0.0000
        SYSTEM LOSSES SW =           0.0000          SYSTEM LOSSES SW =           0.0000

               TOTAL OUT =      981008.1875                 TOTAL OUT =           3.7201

                IN - OUT =         -18.1250                  IN - OUT =      -7.4148E-05

     PERCENT DISCREPANCY =          -0.00         PERCENT DISCREPANCY =          -0.00



1
  VOLUMETRIC BUDGET FOR ENTIRE MODEL AT END OF TIME STEP    3, STRESS PERIOD   5
  ------------------------------------------------------------------------------

     CUMULATIVE VOLUMES      L**3       RATES FOR THIS TIME STEP      L**3/T
     ------------------                 ------------------------

           IN:                                      IN:
           ---                                      ---
             STORAGE     =     4824237.0000               STORAGE     =           1.7012
       CONSTANT HEAD     =           0.0000         CONSTANT HEAD     =           0.0000
     HEAD DEP BOUNDS     =     2371496.0000       HEAD DEP BOUNDS     =           0.2879
      STREAM LEAKAGE     =    96410256.0000        STREAM LEAKAGE     =          11.2245
        UZF RECHARGE     =       73223.9531          UZF RECHARGE     =           0.0000
               GW ET     =           0.0000                 GW ET     =           0.0000
     SURFACE LEAKAGE     =           0.0000       SURFACE LEAKAGE     =           0.0000
           AG WELLS      =           0.0000             AG WELLS      =           0.0000

                TOTAL IN =   103679216.0000                  TOTAL IN =          13.2137

          OUT:                                     OUT:
          ----                                     ----
             STORAGE     =    17928418.0000               STORAGE     =           1.4800
       CONSTANT HEAD     =           0.0000         CONSTANT HEAD     =           0.0000
     HEAD DEP BOUNDS     =     2373946.7500       HEAD DEP BOUNDS     =           0.2898
      STREAM LEAKAGE     =    83303984.0000        STREAM LEAKAGE     =          11.4438
        UZF RECHARGE     =           0.0000          UZF RECHARGE     =           0.0000
               GW ET     =           0.0000                 GW ET     =           0.0000
     SURFACE LEAKAGE     =           0.0000       SURFACE LEAKAGE     =           0.0000
           AG WELLS      =       76629.9531             AG WELLS      =           0.0000

               TOTAL OUT =   103682984.0000                 TOTAL OUT =          13.2136

                IN - OUT =       -3768.0000                  IN - OUT =       3.3379E-05

     PERCENT DISCREPANCY =          -0.00         PERCENT DISCREPANCY =           0.00






         TIME SUMMARY AT END OF TIME STEP    3 IN STRESS PERIOD    5
                    SECONDS     MINUTES      HOURS       DAYS        YEARS
                    -----------------------------------------------------------
   TIME STEP LENGTH  87667.      1461.1      24.352      1.0147     2.77799E-03
 STRESS PERIOD TIME 2.63000E+05  4383.3      73.056      3.0440     8.33397E-03
         TOTAL TIME 8.23939E+06 1.37323E+05  2288.7      95.363     0.26109    
1
 
 SOLVING FOR HEAD 
                                                   Max.-Head-Change                         Max.-Flux-Residual
  Residual-Control   Outer-Iter.   Inner-Iter.     Column Row Layer    Maximum-Head-Change  Column Row Layer    Maximum-Flux-Residual          L2-NORM 
          0                 1           2             2   13     1      -0.4443651973E-02       4   13    1        -0.2506198121E+00      0.5153004500E+00
          0                 2           2             4   13     1       0.4218602196E-03       4   13    1         0.2483917191E-01      0.5051514509E-01
          0                 3           2             4    7     1      -0.1154109020E-01       4    8    1        -0.6198643735E+00      0.1525269693E+01
          0                 4           2             4    7     1       0.1201654278E-01       4    8    1         0.6633968384E+00      0.1624974153E+01
          0                 5           2             4    7     1      -0.4782652365E-03       4    8    1        -0.2714048362E-01      0.6647841600E-01
          0                 6           1             4    7     1       0.5901592137E-05       4    7    1         0.3442172688E-03      0.8431280658E-03

    ------------------------------------------------
       NWT REQUIRED            6 OUTER ITERATIONS 
       AND A TOTAL OF         11 INNER ITERATIONS.
    ------------------------------------------------

 OUTPUT CONTROL FOR STRESS PERIOD    5   TIME STEP    4
    PRINT BUDGET
    SAVE BUDGET
 UBDSV1 SAVING "         STORAGE" ON UNIT 102 AT TIME STEP 4, STRESS PERIOD 5
 UBDSV2 SAVING "   CONSTANT HEAD" ON UNIT 102 AT TIME STEP 4, STRESS PERIOD 5
 UBDSV1 SAVING "FLOW RIGHT FACE " ON UNIT 102 AT TIME STEP 4, STRESS PERIOD 5
 UBDSV1 SAVING "FLOW FRONT FACE " ON UNIT 102 AT TIME STEP 4, STRESS PERIOD 5

  HEAD DEP BOUNDS   PERIOD    5   STEP     4
 BOUNDARY      1   LAYER   1   ROW    13   COL     1   RATE   -0.289687    
 BOUNDARY      2   LAYER   1   ROW    14   COL     9   RATE    0.287884    



 STREAM LISTING     PERIOD      5   STEP        4

 LAYER ROW COL. STREAM  RCH.  FLOW INTO     FLOW TO   FLOW OUT OF   OVRLND.     DIRECT     STREAM       STREAM     STREAM     STREAM   STREAMBED  STREAMBED
                SEG.NO.  NO.  STRM. RCH.    AQUIFER    STRM. RCH.    RUNOFF     PRECIP       ET          HEAD       DEPTH      WIDTH   CONDCTNC.   GRADIENT

   1    1    1     1     1    1.0500E+01  1.5271E-01   1.0347E+01  0.000E+00  0.000E+00  0.000E+00  1.09396E+03  9.109E-01  8.677E+00  3.905E-02  1.304E+00
   1    2    2     1     2    1.0347E+01  2.3504E-01   1.0112E+01  0.000E+00  0.000E+00  0.000E+00  1.08896E+03  9.059E-01  8.597E+00  6.018E-02  1.302E+00
   1    3    3     1     3    1.0112E+01  1.9904E-01   9.9132E+00  0.000E+00  0.000E+00  0.000E+00  1.08332E+03  9.003E-01  8.505E+00  5.103E-02  1.300E+00
   1    3    4     1     4    9.9132E+00  1.8195E-01   9.7312E+00  0.000E+00  0.000E+00  0.000E+00  1.07830E+03  8.947E-01  8.417E+00  4.672E-02  1.298E+00
   1    4    5     2     1    7.7312E+00  2.8007E-01   7.4512E+00  0.000E+00  0.000E+00  0.000E+00  1.07252E+03  5.907E-01  1.200E+01  7.800E-02  1.197E+00
   1    5    6     2     2    7.4512E+00  2.1474E-01   7.2364E+00  0.000E+00  0.000E+00  0.000E+00  1.06709E+03  5.790E-01  1.200E+01  6.000E-02  1.193E+00
   1    6    6     2     3    7.2364E+00  2.1413E-01   7.0223E+00  0.000E+00  0.000E+00  0.000E+00  1.06236E+03  5.688E-01  1.200E+01  6.000E-02  1.190E+00
   1    7    6     2     4    7.0223E+00  2.1351E-01   6.8088E+00  0.000E+00  0.000E+00  0.000E+00  1.05763E+03  5.585E-01  1.200E+01  6.000E-02  1.186E+00
   1    8    6     2     5    6.8088E+00  2.1289E-01   6.5959E+00  0.000E+00  0.000E+00  0.000E+00  1.05291E+03  5.481E-01  1.200E+01  6.000E-02  1.183E+00
   1    3    5     3     1    2.0000E+00  2.8252E-01   1.7175E+00  0.000E+00  0.000E+00  0.000E+00  1.07555E+03  1.909E+00  9.636E+00  7.227E-02  1.955E+00
   1    3    6     3     2    1.7175E+00  2.4905E-01   1.4684E+00  0.000E+00  0.000E+00  0.000E+00  1.07264E+03  1.727E+00  8.909E+00  6.682E-02  1.864E+00
   1    3    7     3     3    1.4684E+00  1.9718E-01   1.2712E+00  0.000E+00  0.000E+00  0.000E+00  1.06987E+03  1.555E+00  8.218E+00  5.547E-02  1.777E+00
   1    4    8     3     4    1.2712E+00  2.2567E-01   1.0456E+00  0.000E+00  0.000E+00  0.000E+00  1.06682E+03  1.364E+00  7.455E+00  6.709E-02  1.682E+00
   1    5    8     3     5    1.0456E+00  1.5790E-01   8.8768E-01  0.000E+00  0.000E+00  0.000E+00  1.06362E+03  1.164E+00  6.655E+00  4.991E-02  1.582E+00
   1    6    8     3     6    8.8768E-01  5.5980E-02   8.3170E-01  0.000E+00  0.000E+00  0.000E+00  1.06158E+03  1.036E+00  6.145E+00  1.844E-02  1.518E+00
   1    5   10     4     1    1.0000E+01  9.0919E-02   9.9091E+00  0.000E+00  0.000E+00  0.000E+00  1.07836E+03  6.368E-01  1.000E+01  2.500E-02  1.212E+00
   1    5    9     4     2    9.9091E+00  1.8158E-01   9.7275E+00  0.000E+00  0.000E+00  0.000E+00  1.07154E+03  6.315E-01  1.000E+01  5.000E-02  1.211E+00
   1    6    8     4     3    9.7275E+00  1.2689E-01   9.6006E+00  0.000E+00  0.000E+00  0.000E+00  1.06381E+03  6.256E-01  1.000E+01  3.500E-02  1.209E+00
   1    6    8     5     1    1.0432E+01  2.2686E-01   1.0205E+01  0.000E+00  0.000E+00  0.000E+00  1.05868E+03  6.790E-01  1.542E+01  6.166E-02  1.226E+00
   1    7    7     5     2    1.0205E+01  2.7894E-01   9.9265E+00  0.000E+00  0.000E+00  0.000E+00  1.05417E+03  6.732E-01  1.519E+01  7.594E-02  1.224E+00
   1    8    7     5     3    9.9265E+00  1.9221E-01   9.7343E+00  0.000E+00  0.000E+00  0.000E+00  1.04992E+03  6.676E-01  1.497E+01  5.241E-02  1.223E+00
   1    8    6     5     4    9.7343E+00  1.3577E-01   9.5985E+00  0.000E+00  0.000E+00  0.000E+00  1.04691E+03  6.637E-01  1.482E+01  3.706E-02  1.221E+00
   1    9    6     6     1    1.2474E+01  2.2801E-01   1.2246E+01  0.000E+00  0.000E+00  0.000E+00  1.04353E+03  8.002E-01  1.200E+01  6.000E-02  1.267E+00
   1   10    7     6     2    1.2246E+01  2.2748E-01   1.2019E+01  0.000E+00  0.000E+00  0.000E+00  1.03897E+03  7.913E-01  1.200E+01  6.000E-02  1.264E+00
   1   11    7     6     3    1.2019E+01  2.2694E-01   1.1792E+01  0.000E+00  0.000E+00  0.000E+00  1.03442E+03  7.824E-01  1.200E+01  6.000E-02  1.261E+00
   1   12    7     6     4    1.1792E+01  2.2640E-01   1.1566E+01  0.000E+00  0.000E+00  0.000E+00  1.02986E+03  7.734E-01  1.200E+01  6.000E-02  1.258E+00
   1   13    7     6     5    1.1566E+01 -4.2502E-02   1.1608E+01  0.000E+00  0.000E+00  0.000E+00  1.02668E+03  7.698E-01  1.200E+01  2.400E-01 -5.903E-02
   1   14    9     7     1    1.5000E+02  1.3670E+00   1.4863E+02  0.000E+00  0.000E+00  0.000E+00  1.03987E+03  2.288E+00  5.529E+01  5.593E-01  8.147E-01
   1   13    8     7     2    1.4863E+02  1.9170E+00   1.4672E+02  0.000E+00  0.000E+00  0.000E+00  1.03478E+03  2.279E+00  5.526E+01  6.148E-01  1.039E+00
   1   13    7     7     3    1.4672E+02  1.5820E+00   1.4513E+02  0.000E+00  0.000E+00  0.000E+00  1.02969E+03  2.270E+00  5.521E+01  5.584E-01  9.443E-01
   1   13    6     8     1    1.5674E+02  9.4483E-01   1.5580E+02  0.000E+00  0.000E+00  0.000E+00  1.02474E+03  2.860E+00  4.148E+01  4.227E-01  7.451E-01
   1   13    5     8     2    1.5580E+02  2.0029E-01   1.5560E+02  0.000E+00  0.000E+00  0.000E+00  1.01848E+03  2.856E+00  4.142E+01  4.221E-01  1.582E-01
   1   13    4     8     3    1.5560E+02 -2.5418E+00   1.5814E+02  0.000E+00  0.000E+00  0.000E+00  1.01224E+03  2.865E+00  4.154E+01  4.233E+00 -2.002E-01
   1   13    3     8     4    1.5814E+02 -3.8140E+00   1.6195E+02  0.000E+00  0.000E+00  0.000E+00  1.00601E+03  2.886E+00  4.185E+01  4.265E+00 -2.981E-01
   1   13    2     8     5    1.6195E+02 -2.8398E+00   1.6479E+02  0.000E+00  0.000E+00  0.000E+00  9.99784E+02  2.909E+00  4.217E+01  4.298E+00 -2.203E-01
   1   13    1     8     6    1.6479E+02 -2.1350E+00   1.6693E+02  0.000E+00  0.000E+00  0.000E+00  9.94800E+02  2.925E+00  4.241E+01  2.593E+00 -2.744E-01
   1    8    6     9     1    3.7200E+00  0.0000E+00   3.7200E+00  0.000E+00  0.000E+00  0.000E+00  1.08000E+03  1.252E+00  4.000E+00  0.000E+00  1.417E+00
   1    8    5     9     2    3.7200E+00  0.0000E+00   3.7200E+00  0.000E+00  0.000E+00  0.000E+00  1.07950E+03  1.252E+00  4.000E+00  0.000E+00  1.417E+00



 UBDSV3 SAVING "           GW ET" ON UNIT  61 AT TIME STEP 4, STRESS PERIOD 5
 UBDSV3 SAVING "    UZF RECHARGE" ON UNIT  61 AT TIME STEP 4, STRESS PERIOD 5
 UBDSV3 SAVING " SURFACE LEAKAGE" ON UNIT  61 AT TIME STEP 4, STRESS PERIOD 5
 UBDSV3 SAVING "       HORT+DUNN" ON UNIT  61 AT TIME STEP 4, STRESS PERIOD 5
 UBDSV3 SAVING "  STORAGE CHANGE" ON UNIT  61 AT TIME STEP 4, STRESS PERIOD 5


UNSATURATED ZONE PACKAGE VOLUMETRIC BUDGET FOR  TIME STEP     4 STRESS PERIOD    5
  ------------------------------------------------------------------------------



     CUMULATIVE VOLUMES      L**3       RATES FOR THIS TIME STEP      L**3/T
     ------------------                 ------------------------

           IN:                                      IN:
           ---                                      ---
        INFILTRATION =     8364323.1679          INFILTRATION =           4.5676

          OUT:                                     OUT:
          ----                                     ----
              UZF ET =     8207185.0695                UZF ET =           4.5675
        UZF RECHARGE =       73224.0000          UZF RECHARGE =       0.0000E+00

            IN - OUT =       83914.0984              IN - OUT =       7.2658E-05

          STORAGE:                                 STORAGE:
          --------                                 --------
      STORAGE CHANGE =       83913.5068        STORAGE CHANGE =       7.2961E-05

 PERCENT DISCREPANCY IS DIFFERENCE BETWEEN IN-OUT MINUS CHANGE IN STORAGE
 DIVIDED BY THE AVERAGE OF IN AND OUT TIMES 100

 PERCENT DISCREPANCY =           0.00     PERCENT DISCREPANCY =           0.00






 

            AG WELLS      PERIOD    5   STEP   4
 AG WELL      1   LAYER   1   ROW     6   COL     4   RATE     0.00000    
 AG WELL      2   LAYER   1   ROW     6   COL     5   RATE     0.00000    
 AG WELL      3   LAYER   1   ROW     7   COL     4   RATE     0.00000    
 AG WELL      4   LAYER   1   ROW     7   COL     5   RATE     0.00000    
 AG WELL      5   LAYER   1   ROW     8   COL     4   RATE     0.00000    
 AG WELL      6   LAYER   1   ROW     8   COL     5   RATE     0.00000    
 
 

   DIVERSION SEGMENTS     PERIOD    5   STEP   4
 SEGMENT      9   RATE     3.72000    
 
 

        SW IRRIGATION     PERIOD    5   STEP   4
 SEGMENT      9   ROW     6   COL     4   RATE    0.620012    
 SEGMENT      9   ROW     6   COL     5   RATE    0.620012    
 SEGMENT      9   ROW     7   COL     4   RATE    0.620012    
 SEGMENT      9   ROW     7   COL     5   RATE    0.620012    
 SEGMENT      9   ROW     8   COL     4   RATE    0.620012    
 SEGMENT      9   ROW     8   COL     5   RATE    0.620012    
 
 

        GW IRRIGATION     PERIOD    5   STEP   4
 AG WELL      1   ROW     6   COL     4   RATE     0.00000    
 AG WELL      2   ROW     6   COL     5   RATE     0.00000    
 AG WELL      3   ROW     7   COL     4   RATE     0.00000    
 AG WELL      4   ROW     7   COL     5   RATE     0.00000    
 AG WELL      5   ROW     8   COL     4   RATE     0.00000    
 AG WELL      6   ROW     8   COL     5   RATE     0.00000    
 
1
  VOLUMETRIC BUDGET FOR AGRICULTURAL FIELDS AT  END OF TIME STEP    4, STRESS PERIOD   5
  ------------------------------------------------------------------------------

     CUMULATIVE VOLUMES      L**3       RATES FOR THIS TIME STEP      L**3/T
     ------------------                 ------------------------

           IN:                                      IN:
           ---                                      ---
               AG WELLS  =       76629.9531                 AG WELLS  =           0.0000
      DIVERSION SEGMENTS =     1230480.0000        DIVERSION SEGMENTS =           3.7200
       IRRIGATION PONDS  =           0.0000         IRRIGATION PONDS  =           0.0000
           GW IRRIGATION =           0.0000             GW IRRIGATION =           0.0000
           SW IRRIGATION =           0.0000             SW IRRIGATION =           0.0000
        SYSTEM LOSSES GW =           0.0000          SYSTEM LOSSES GW =           0.0000
        SYSTEM LOSSES SW =           0.0000          SYSTEM LOSSES SW =           0.0000

                TOTAL IN =     1307110.0000                  TOTAL IN =           3.7200

          OUT:                                     OUT:
          ----                                     ----
               AG WELLS  =           0.0000                 AG WELLS  =           0.0000
      DIVERSION SEGMENTS =           0.0000        DIVERSION SEGMENTS =           0.0000
       IRRIGATION PONDS  =           0.0000         IRRIGATION PONDS  =           0.0000
           GW IRRIGATION =       76629.9531             GW IRRIGATION =           0.0000
           SW IRRIGATION =     1230504.6250             SW IRRIGATION =           3.7201
        SYSTEM LOSSES GW =           0.0000          SYSTEM LOSSES GW =           0.0000
        SYSTEM LOSSES SW =           0.0000          SYSTEM LOSSES SW =           0.0000

               TOTAL OUT =     1307134.6250                 TOTAL OUT =           3.7201

                IN - OUT =         -24.6250                  IN - OUT =      -7.4148E-05

     PERCENT DISCREPANCY =          -0.00         PERCENT DISCREPANCY =          -0.00



1
  VOLUMETRIC BUDGET FOR ENTIRE MODEL AT END OF TIME STEP    4, STRESS PERIOD   5
  ------------------------------------------------------------------------------

     CUMULATIVE VOLUMES      L**3       RATES FOR THIS TIME STEP      L**3/T
     ------------------                 ------------------------

           IN:                                      IN:
           ---                                      ---
             STORAGE     =     4965958.0000               STORAGE     =           1.6166
       CONSTANT HEAD     =           0.0000         CONSTANT HEAD     =           0.0000
     HEAD DEP BOUNDS     =     2396733.7500       HEAD DEP BOUNDS     =           0.2879
      STREAM LEAKAGE     =    97394352.0000        STREAM LEAKAGE     =          11.2255
        UZF RECHARGE     =       73223.9531          UZF RECHARGE     =           0.0000
               GW ET     =           0.0000                 GW ET     =           0.0000
     SURFACE LEAKAGE     =           0.0000       SURFACE LEAKAGE     =           0.0000
           AG WELLS      =           0.0000             AG WELLS      =           0.0000

                TOTAL IN =   104830264.0000                  TOTAL IN =          13.1299

          OUT:                                     OUT:
          ----                                     ----
             STORAGE     =    18057032.0000               STORAGE     =           1.4671
       CONSTANT HEAD     =           0.0000         CONSTANT HEAD     =           0.0000
     HEAD DEP BOUNDS     =     2399342.7500       HEAD DEP BOUNDS     =           0.2897
      STREAM LEAKAGE     =    84301032.0000        STREAM LEAKAGE     =          11.3731
        UZF RECHARGE     =           0.0000          UZF RECHARGE     =           0.0000
               GW ET     =           0.0000                 GW ET     =           0.0000
     SURFACE LEAKAGE     =           0.0000       SURFACE LEAKAGE     =           0.0000
           AG WELLS      =       76629.9531             AG WELLS      =           0.0000

               TOTAL OUT =   104834040.0000                 TOTAL OUT =          13.1299

                IN - OUT =       -3776.0000                  IN - OUT =       3.4332E-05

     PERCENT DISCREPANCY =          -0.00         PERCENT DISCREPANCY =           0.00






         TIME SUMMARY AT END OF TIME STEP    4 IN STRESS PERIOD    5
                    SECONDS     MINUTES      HOURS       DAYS        YEARS
                    -----------------------------------------------------------
   TIME STEP LENGTH  87667.      1461.1      24.352      1.0147     2.77799E-03
 STRESS PERIOD TIME 3.50667E+05  5844.4      97.407      4.0586     1.11120E-02
         TOTAL TIME 8.32706E+06 1.38784E+05  2313.1      96.378     0.26387    
1
 
 SOLVING FOR HEAD 
                                                   Max.-Head-Change                         Max.-Flux-Residual
  Residual-Control   Outer-Iter.   Inner-Iter.     Column Row Layer    Maximum-Head-Change  Column Row Layer    Maximum-Flux-Residual          L2-NORM 
          0                 1           2             2   13     1      -0.4022624001E-02       2   13    1        -0.2259360850E+00      0.4765312486E+00
          0                 2           2             2   13     1       0.3758227715E-03       4   13    1         0.2179411568E-01      0.4676221628E-01
          0                 3           2             4    7     1      -0.1154105873E-01       4    8    1        -0.6198636336E+00      0.1525271038E+01
          0                 4           2             4    7     1       0.1201653666E-01       4    8    1         0.6633965679E+00      0.1624973872E+01
          0                 5           2             4    7     1      -0.4782677937E-03       4    8    1        -0.2714063149E-01      0.6647879304E-01
          0                 6           1             4    7     1       0.5905030576E-05       4    7    1         0.3444178005E-03      0.8436194917E-03

    ------------------------------------------------
       NWT REQUIRED            6 OUTER ITERATIONS 
       AND A TOTAL OF         11 INNER ITERATIONS.
    ------------------------------------------------

 NO OUTPUT CONTROL FOR STRESS PERIOD    5   TIME STEP    5
 
 SOLVING FOR HEAD 
                                                   Max.-Head-Change                         Max.-Flux-Residual
  Residual-Control   Outer-Iter.   Inner-Iter.     Column Row Layer    Maximum-Head-Change  Column Row Layer    Maximum-Flux-Residual          L2-NORM 
          0                 1           2             2   13     1      -0.3632331656E-02       2   13    1        -0.2039850192E+00      0.4420636112E+00
          0                 2           2             2   13     1       0.3395501458E-03       2   13    1         0.1960124899E-01      0.4343110511E-01
          0                 3           2             4    7     1      -0.1154102921E-01       4    8    1        -0.6198629900E+00      0.1525272349E+01
          0                 4           2             4    7     1       0.1201653138E-01       4    8    1         0.6633963439E+00      0.1624973409E+01
          0                 5           2             4    7     1      -0.4782640824E-03       4    8    1        -0.2714042364E-01      0.6647796477E-01
          0                 6           1             4    7     1       0.5901578023E-05       4    7    1         0.3442164348E-03      0.8431193193E-03

    ------------------------------------------------
       NWT REQUIRED            6 OUTER ITERATIONS 
       AND A TOTAL OF         11 INNER ITERATIONS.
    ------------------------------------------------

 OUTPUT CONTROL FOR STRESS PERIOD    5   TIME STEP    6
    PRINT BUDGET
    SAVE BUDGET
 UBDSV1 SAVING "         STORAGE" ON UNIT 102 AT TIME STEP 6, STRESS PERIOD 5
 UBDSV2 SAVING "   CONSTANT HEAD" ON UNIT 102 AT TIME STEP 6, STRESS PERIOD 5
 UBDSV1 SAVING "FLOW RIGHT FACE " ON UNIT 102 AT TIME STEP 6, STRESS PERIOD 5
 UBDSV1 SAVING "FLOW FRONT FACE " ON UNIT 102 AT TIME STEP 6, STRESS PERIOD 5

  HEAD DEP BOUNDS   PERIOD    5   STEP     6
 BOUNDARY      1   LAYER   1   ROW    13   COL     1   RATE   -0.289471    
 BOUNDARY      2   LAYER   1   ROW    14   COL     9   RATE    0.287886    



 STREAM LISTING     PERIOD      5   STEP        6

 LAYER ROW COL. STREAM  RCH.  FLOW INTO     FLOW TO   FLOW OUT OF   OVRLND.     DIRECT     STREAM       STREAM     STREAM     STREAM   STREAMBED  STREAMBED
                SEG.NO.  NO.  STRM. RCH.    AQUIFER    STRM. RCH.    RUNOFF     PRECIP       ET          HEAD       DEPTH      WIDTH   CONDCTNC.   GRADIENT

   1    1    1     1     1    1.0500E+01  1.5271E-01   1.0347E+01  0.000E+00  0.000E+00  0.000E+00  1.09396E+03  9.109E-01  8.677E+00  3.905E-02  1.304E+00
   1    2    2     1     2    1.0347E+01  2.3505E-01   1.0112E+01  0.000E+00  0.000E+00  0.000E+00  1.08896E+03  9.059E-01  8.597E+00  6.018E-02  1.302E+00
   1    3    3     1     3    1.0112E+01  1.9904E-01   9.9132E+00  0.000E+00  0.000E+00  0.000E+00  1.08332E+03  9.003E-01  8.505E+00  5.103E-02  1.300E+00
   1    3    4     1     4    9.9132E+00  1.8195E-01   9.7313E+00  0.000E+00  0.000E+00  0.000E+00  1.07830E+03  8.947E-01  8.417E+00  4.672E-02  1.298E+00
   1    4    5     2     1    7.7313E+00  2.8007E-01   7.4512E+00  0.000E+00  0.000E+00  0.000E+00  1.07252E+03  5.907E-01  1.200E+01  7.800E-02  1.197E+00
   1    5    6     2     2    7.4512E+00  2.1474E-01   7.2365E+00  0.000E+00  0.000E+00  0.000E+00  1.06709E+03  5.790E-01  1.200E+01  6.000E-02  1.193E+00
   1    6    6     2     3    7.2365E+00  2.1413E-01   7.0224E+00  0.000E+00  0.000E+00  0.000E+00  1.06236E+03  5.688E-01  1.200E+01  6.000E-02  1.190E+00
   1    7    6     2     4    7.0224E+00  2.1351E-01   6.8088E+00  0.000E+00  0.000E+00  0.000E+00  1.05763E+03  5.585E-01  1.200E+01  6.000E-02  1.186E+00
   1    8    6     2     5    6.8088E+00  2.1289E-01   6.5960E+00  0.000E+00  0.000E+00  0.000E+00  1.05291E+03  5.481E-01  1.200E+01  6.000E-02  1.183E+00
   1    3    5     3     1    2.0000E+00  2.8252E-01   1.7175E+00  0.000E+00  0.000E+00  0.000E+00  1.07555E+03  1.909E+00  9.636E+00  7.227E-02  1.955E+00
   1    3    6     3     2    1.7175E+00  2.4905E-01   1.4684E+00  0.000E+00  0.000E+00  0.000E+00  1.07264E+03  1.727E+00  8.909E+00  6.682E-02  1.864E+00
   1    3    7     3     3    1.4684E+00  1.9718E-01   1.2712E+00  0.000E+00  0.000E+00  0.000E+00  1.06987E+03  1.555E+00  8.218E+00  5.547E-02  1.777E+00
   1    4    8     3     4    1.2712E+00  2.2567E-01   1.0456E+00  0.000E+00  0.000E+00  0.000E+00  1.06682E+03  1.364E+00  7.455E+00  6.709E-02  1.682E+00
   1    5    8     3     5    1.0456E+00  1.5790E-01   8.8768E-01  0.000E+00  0.000E+00  0.000E+00  1.06362E+03  1.164E+00  6.655E+00  4.991E-02  1.582E+00
   1    6    8     3     6    8.8768E-01  5.5980E-02   8.3170E-01  0.000E+00  0.000E+00  0.000E+00  1.06158E+03  1.036E+00  6.145E+00  1.844E-02  1.518E+00
   1    5   10     4     1    1.0000E+01  9.0919E-02   9.9091E+00  0.000E+00  0.000E+00  0.000E+00  1.07836E+03  6.368E-01  1.000E+01  2.500E-02  1.212E+00
   1    5    9     4     2    9.9091E+00  1.8158E-01   9.7275E+00  0.000E+00  0.000E+00  0.000E+00  1.07154E+03  6.315E-01  1.000E+01  5.000E-02  1.211E+00
   1    6    8     4     3    9.7275E+00  1.2689E-01   9.6006E+00  0.000E+00  0.000E+00  0.000E+00  1.06381E+03  6.256E-01  1.000E+01  3.500E-02  1.209E+00
   1    6    8     5     1    1.0432E+01  2.2686E-01   1.0205E+01  0.000E+00  0.000E+00  0.000E+00  1.05868E+03  6.790E-01  1.542E+01  6.166E-02  1.226E+00
   1    7    7     5     2    1.0205E+01  2.7894E-01   9.9265E+00  0.000E+00  0.000E+00  0.000E+00  1.05417E+03  6.732E-01  1.519E+01  7.594E-02  1.224E+00
   1    8    7     5     3    9.9265E+00  1.9221E-01   9.7343E+00  0.000E+00  0.000E+00  0.000E+00  1.04992E+03  6.676E-01  1.497E+01  5.241E-02  1.223E+00
   1    8    6     5     4    9.7343E+00  1.3577E-01   9.5985E+00  0.000E+00  0.000E+00  0.000E+00  1.04691E+03  6.637E-01  1.482E+01  3.706E-02  1.221E+00
   1    9    6     6     1    1.2474E+01  2.2801E-01   1.2246E+01  0.000E+00  0.000E+00  0.000E+00  1.04353E+03  8.002E-01  1.200E+01  6.000E-02  1.267E+00
   1   10    7     6     2    1.2246E+01  2.2748E-01   1.2019E+01  0.000E+00  0.000E+00  0.000E+00  1.03897E+03  7.913E-01  1.200E+01  6.000E-02  1.264E+00
   1   11    7     6     3    1.2019E+01  2.2694E-01   1.1792E+01  0.000E+00  0.000E+00  0.000E+00  1.03442E+03  7.824E-01  1.200E+01  6.000E-02  1.261E+00
   1   12    7     6     4    1.1792E+01  2.2640E-01   1.1566E+01  0.000E+00  0.000E+00  0.000E+00  1.02986E+03  7.734E-01  1.200E+01  6.000E-02  1.258E+00
   1   13    7     6     5    1.1566E+01 -4.2279E-02   1.1608E+01  0.000E+00  0.000E+00  0.000E+00  1.02668E+03  7.697E-01  1.200E+01  2.400E-01 -5.872E-02
   1   14    9     7     1    1.5000E+02  1.3671E+00   1.4863E+02  0.000E+00  0.000E+00  0.000E+00  1.03987E+03  2.288E+00  5.529E+01  5.593E-01  8.148E-01
   1   13    8     7     2    1.4863E+02  1.9169E+00   1.4672E+02  0.000E+00  0.000E+00  0.000E+00  1.03478E+03  2.279E+00  5.526E+01  6.148E-01  1.039E+00
   1   13    7     7     3    1.4672E+02  1.5825E+00   1.4513E+02  0.000E+00  0.000E+00  0.000E+00  1.02969E+03  2.270E+00  5.521E+01  5.584E-01  9.446E-01
   1   13    6     8     1    1.5674E+02  9.4559E-01   1.5580E+02  0.000E+00  0.000E+00  0.000E+00  1.02474E+03  2.860E+00  4.148E+01  4.227E-01  7.458E-01
   1   13    5     8     2    1.5580E+02  2.0089E-01   1.5560E+02  0.000E+00  0.000E+00  0.000E+00  1.01848E+03  2.856E+00  4.142E+01  4.221E-01  1.587E-01
   1   13    4     8     3    1.5560E+02 -2.5034E+00   1.5810E+02  0.000E+00  0.000E+00  0.000E+00  1.01224E+03  2.864E+00  4.153E+01  4.232E+00 -1.972E-01
   1   13    3     8     4    1.5810E+02 -3.7787E+00   1.6188E+02  0.000E+00  0.000E+00  0.000E+00  1.00601E+03  2.886E+00  4.184E+01  4.264E+00 -2.954E-01
   1   13    2     8     5    1.6188E+02 -2.8012E+00   1.6468E+02  0.000E+00  0.000E+00  0.000E+00  9.99783E+02  2.908E+00  4.216E+01  4.297E+00 -2.173E-01
   1   13    1     8     6    1.6468E+02 -2.1218E+00   1.6680E+02  0.000E+00  0.000E+00  0.000E+00  9.94799E+02  2.924E+00  4.240E+01  2.593E+00 -2.728E-01
   1    8    6     9     1    3.7200E+00  0.0000E+00   3.7200E+00  0.000E+00  0.000E+00  0.000E+00  1.08000E+03  1.252E+00  4.000E+00  0.000E+00  1.417E+00
   1    8    5     9     2    3.7200E+00  0.0000E+00   3.7200E+00  0.000E+00  0.000E+00  0.000E+00  1.07950E+03  1.252E+00  4.000E+00  0.000E+00  1.417E+00



 UBDSV3 SAVING "           GW ET" ON UNIT  61 AT TIME STEP 6, STRESS PERIOD 5
 UBDSV3 SAVING "    UZF RECHARGE" ON UNIT  61 AT TIME STEP 6, STRESS PERIOD 5
 UBDSV3 SAVING " SURFACE LEAKAGE" ON UNIT  61 AT TIME STEP 6, STRESS PERIOD 5
 UBDSV3 SAVING "       HORT+DUNN" ON UNIT  61 AT TIME STEP 6, STRESS PERIOD 5
 UBDSV3 SAVING "  STORAGE CHANGE" ON UNIT  61 AT TIME STEP 6, STRESS PERIOD 5


UNSATURATED ZONE PACKAGE VOLUMETRIC BUDGET FOR  TIME STEP     6 STRESS PERIOD    5
  ------------------------------------------------------------------------------



     CUMULATIVE VOLUMES      L**3       RATES FOR THIS TIME STEP      L**3/T
     ------------------                 ------------------------

           IN:                                      IN:
           ---                                      ---
        INFILTRATION =     9165170.8315          INFILTRATION =           4.5676

          OUT:                                     OUT:
          ----                                     ----
              UZF ET =     9008020.0690                UZF ET =           4.5675
        UZF RECHARGE =       73224.0000          UZF RECHARGE =       0.0000E+00

            IN - OUT =       83926.7625              IN - OUT =       7.0870E-05

          STORAGE:                                 STORAGE:
          --------                                 --------
      STORAGE CHANGE =       83926.1816        STORAGE CHANGE =       7.1104E-05

 PERCENT DISCREPANCY IS DIFFERENCE BETWEEN IN-OUT MINUS CHANGE IN STORAGE
 DIVIDED BY THE AVERAGE OF IN AND OUT TIMES 100

 PERCENT DISCREPANCY =           0.00     PERCENT DISCREPANCY =           0.00






 

            AG WELLS      PERIOD    5   STEP   6
 AG WELL      1   LAYER   1   ROW     6   COL     4   RATE     0.00000    
 AG WELL      2   LAYER   1   ROW     6   COL     5   RATE     0.00000    
 AG WELL      3   LAYER   1   ROW     7   COL     4   RATE     0.00000    
 AG WELL      4   LAYER   1   ROW     7   COL     5   RATE     0.00000    
 AG WELL      5   LAYER   1   ROW     8   COL     4   RATE     0.00000    
 AG WELL      6   LAYER   1   ROW     8   COL     5   RATE     0.00000    
 
 

   DIVERSION SEGMENTS     PERIOD    5   STEP   6
 SEGMENT      9   RATE     3.72000    
 
 

        SW IRRIGATION     PERIOD    5   STEP   6
 SEGMENT      9   ROW     6   COL     4   RATE    0.620012    
 SEGMENT      9   ROW     6   COL     5   RATE    0.620012    
 SEGMENT      9   ROW     7   COL     4   RATE    0.620012    
 SEGMENT      9   ROW     7   COL     5   RATE    0.620012    
 SEGMENT      9   ROW     8   COL     4   RATE    0.620012    
 SEGMENT      9   ROW     8   COL     5   RATE    0.620012    
 
 

        GW IRRIGATION     PERIOD    5   STEP   6
 AG WELL      1   ROW     6   COL     4   RATE     0.00000    
 AG WELL      2   ROW     6   COL     5   RATE     0.00000    
 AG WELL      3   ROW     7   COL     4   RATE     0.00000    
 AG WELL      4   ROW     7   COL     5   RATE     0.00000    
 AG WELL      5   ROW     8   COL     4   RATE     0.00000    
 AG WELL      6   ROW     8   COL     5   RATE     0.00000    
 
1
  VOLUMETRIC BUDGET FOR AGRICULTURAL FIELDS AT  END OF TIME STEP    6, STRESS PERIOD   5
  ------------------------------------------------------------------------------

     CUMULATIVE VOLUMES      L**3       RATES FOR THIS TIME STEP      L**3/T
     ------------------                 ------------------------

           IN:                                      IN:
           ---                                      ---
               AG WELLS  =       76629.9531                 AG WELLS  =           0.0000
      DIVERSION SEGMENTS =     1882719.7500        DIVERSION SEGMENTS =           3.7200
       IRRIGATION PONDS  =           0.0000         IRRIGATION PONDS  =           0.0000
           GW IRRIGATION =           0.0000             GW IRRIGATION =           0.0000
           SW IRRIGATION =           0.0000             SW IRRIGATION =           0.0000
        SYSTEM LOSSES GW =           0.0000          SYSTEM LOSSES GW =           0.0000
        SYSTEM LOSSES SW =           0.0000          SYSTEM LOSSES SW =           0.0000

                TOTAL IN =     1959349.7500                  TOTAL IN =           3.7200

          OUT:                                     OUT:
          ----                                     ----
               AG WELLS  =           0.0000                 AG WELLS  =           0.0000
      DIVERSION SEGMENTS =           0.0000        DIVERSION SEGMENTS =           0.0000
       IRRIGATION PONDS  =           0.0000         IRRIGATION PONDS  =           0.0000
           GW IRRIGATION =       76629.9531             GW IRRIGATION =           0.0000
           SW IRRIGATION =     1882757.2500             SW IRRIGATION =           3.7201
        SYSTEM LOSSES GW =           0.0000          SYSTEM LOSSES GW =           0.0000
        SYSTEM LOSSES SW =           0.0000          SYSTEM LOSSES SW =           0.0000

               TOTAL OUT =     1959387.2500                 TOTAL OUT =           3.7201

                IN - OUT =         -37.5000                  IN - OUT =      -7.4387E-05

     PERCENT DISCREPANCY =          -0.00         PERCENT DISCREPANCY =          -0.00



1
  VOLUMETRIC BUDGET FOR ENTIRE MODEL AT END OF TIME STEP    6, STRESS PERIOD   5
  ------------------------------------------------------------------------------

     CUMULATIVE VOLUMES      L**3       RATES FOR THIS TIME STEP      L**3/T
     ------------------                 ------------------------

           IN:                                      IN:
           ---                                      ---
             STORAGE     =     5229257.5000               STORAGE     =           1.4653
       CONSTANT HEAD     =           0.0000         CONSTANT HEAD     =           0.0000
     HEAD DEP BOUNDS     =     2447209.7500       HEAD DEP BOUNDS     =           0.2879
      STREAM LEAKAGE     =    99362784.0000        STREAM LEAKAGE     =          11.2273
        UZF RECHARGE     =       73223.9531          UZF RECHARGE     =           0.0000
               GW ET     =           0.0000                 GW ET     =           0.0000
     SURFACE LEAKAGE     =           0.0000       SURFACE LEAKAGE     =           0.0000
           AG WELLS      =           0.0000             AG WELLS      =           0.0000

                TOTAL IN =   107112472.0000                  TOTAL IN =          12.9805

          OUT:                                     OUT:
          ----                                     ----
             STORAGE     =    18311142.0000               STORAGE     =           1.4436
       CONSTANT HEAD     =           0.0000         CONSTANT HEAD     =           0.0000
     HEAD DEP BOUNDS     =     2450106.0000       HEAD DEP BOUNDS     =           0.2895
      STREAM LEAKAGE     =    86278368.0000        STREAM LEAKAGE     =          11.2474
        UZF RECHARGE     =           0.0000          UZF RECHARGE     =           0.0000
               GW ET     =           0.0000                 GW ET     =           0.0000
     SURFACE LEAKAGE     =           0.0000       SURFACE LEAKAGE     =           0.0000
           AG WELLS      =       76629.9531             AG WELLS      =           0.0000

               TOTAL OUT =   107116248.0000                 TOTAL OUT =          12.9805

                IN - OUT =       -3776.0000                  IN - OUT =       3.4332E-05

     PERCENT DISCREPANCY =          -0.00         PERCENT DISCREPANCY =           0.00






         TIME SUMMARY AT END OF TIME STEP    6 IN STRESS PERIOD    5
                    SECONDS     MINUTES      HOURS       DAYS        YEARS
                    -----------------------------------------------------------
   TIME STEP LENGTH  87667.      1461.1      24.352      1.0147     2.77799E-03
 STRESS PERIOD TIME 5.26000E+05  8766.7      146.11      6.0880     1.66679E-02
         TOTAL TIME 8.50239E+06 1.41707E+05  2361.8      98.407     0.26942    
1
 
 SOLVING FOR HEAD 
                                                   Max.-Head-Change                         Max.-Flux-Residual
  Residual-Control   Outer-Iter.   Inner-Iter.     Column Row Layer    Maximum-Head-Change  Column Row Layer    Maximum-Flux-Residual          L2-NORM 
          0                 1           2             2   13     1      -0.3270578748E-02       2   13    1        -0.1836407774E+00      0.4115601845E+00
          0                 2           2             2   13     1       0.3059031243E-03       2   13    1         0.1765605028E-01      0.4048764836E-01
          0                 3           2             4    7     1      -0.1154100017E-01       4    8    1        -0.6198622735E+00      0.1525273664E+01
          0                 4           2             4    7     1       0.1201652505E-01       4    8    1         0.6633960551E+00      0.1624973054E+01
          0                 5           2             4    7     1      -0.4782667562E-03       4    6    1        -0.2715216311E-01      0.6648373166E-01
          0                 6           1             4    7     1       0.5904457727E-05       4    7    1         0.3444174504E-03      0.8426106997E-03

    ------------------------------------------------
       NWT REQUIRED            6 OUTER ITERATIONS 
       AND A TOTAL OF         11 INNER ITERATIONS.
    ------------------------------------------------

 OUTPUT CONTROL FOR STRESS PERIOD    5   TIME STEP    7
    PRINT BUDGET
    SAVE BUDGET
 UBDSV1 SAVING "         STORAGE" ON UNIT 102 AT TIME STEP 7, STRESS PERIOD 5
 UBDSV2 SAVING "   CONSTANT HEAD" ON UNIT 102 AT TIME STEP 7, STRESS PERIOD 5
 UBDSV1 SAVING "FLOW RIGHT FACE " ON UNIT 102 AT TIME STEP 7, STRESS PERIOD 5
 UBDSV1 SAVING "FLOW FRONT FACE " ON UNIT 102 AT TIME STEP 7, STRESS PERIOD 5

  HEAD DEP BOUNDS   PERIOD    5   STEP     7
 BOUNDARY      1   LAYER   1   ROW    13   COL     1   RATE   -0.289369    
 BOUNDARY      2   LAYER   1   ROW    14   COL     9   RATE    0.287887    



 STREAM LISTING     PERIOD      5   STEP        7

 LAYER ROW COL. STREAM  RCH.  FLOW INTO     FLOW TO   FLOW OUT OF   OVRLND.     DIRECT     STREAM       STREAM     STREAM     STREAM   STREAMBED  STREAMBED
                SEG.NO.  NO.  STRM. RCH.    AQUIFER    STRM. RCH.    RUNOFF     PRECIP       ET          HEAD       DEPTH      WIDTH   CONDCTNC.   GRADIENT

   1    1    1     1     1    1.0500E+01  1.5271E-01   1.0347E+01  0.000E+00  0.000E+00  0.000E+00  1.09396E+03  9.109E-01  8.677E+00  3.905E-02  1.304E+00
   1    2    2     1     2    1.0347E+01  2.3505E-01   1.0112E+01  0.000E+00  0.000E+00  0.000E+00  1.08896E+03  9.059E-01  8.597E+00  6.018E-02  1.302E+00
   1    3    3     1     3    1.0112E+01  1.9904E-01   9.9132E+00  0.000E+00  0.000E+00  0.000E+00  1.08332E+03  9.003E-01  8.505E+00  5.103E-02  1.300E+00
   1    3    4     1     4    9.9132E+00  1.8195E-01   9.7313E+00  0.000E+00  0.000E+00  0.000E+00  1.07830E+03  8.947E-01  8.417E+00  4.672E-02  1.298E+00
   1    4    5     2     1    7.7313E+00  2.8007E-01   7.4512E+00  0.000E+00  0.000E+00  0.000E+00  1.07252E+03  5.907E-01  1.200E+01  7.800E-02  1.197E+00
   1    5    6     2     2    7.4512E+00  2.1474E-01   7.2365E+00  0.000E+00  0.000E+00  0.000E+00  1.06709E+03  5.790E-01  1.200E+01  6.000E-02  1.193E+00
   1    6    6     2     3    7.2365E+00  2.1413E-01   7.0224E+00  0.000E+00  0.000E+00  0.000E+00  1.06236E+03  5.688E-01  1.200E+01  6.000E-02  1.190E+00
   1    7    6     2     4    7.0224E+00  2.1351E-01   6.8088E+00  0.000E+00  0.000E+00  0.000E+00  1.05763E+03  5.585E-01  1.200E+01  6.000E-02  1.186E+00
   1    8    6     2     5    6.8088E+00  2.1289E-01   6.5960E+00  0.000E+00  0.000E+00  0.000E+00  1.05291E+03  5.481E-01  1.200E+01  6.000E-02  1.183E+00
   1    3    5     3     1    2.0000E+00  2.8252E-01   1.7175E+00  0.000E+00  0.000E+00  0.000E+00  1.07555E+03  1.909E+00  9.636E+00  7.227E-02  1.955E+00
   1    3    6     3     2    1.7175E+00  2.4905E-01   1.4684E+00  0.000E+00  0.000E+00  0.000E+00  1.07264E+03  1.727E+00  8.909E+00  6.682E-02  1.864E+00
   1    3    7     3     3    1.4684E+00  1.9718E-01   1.2712E+00  0.000E+00  0.000E+00  0.000E+00  1.06987E+03  1.555E+00  8.218E+00  5.547E-02  1.777E+00
   1    4    8     3     4    1.2712E+00  2.2567E-01   1.0456E+00  0.000E+00  0.000E+00  0.000E+00  1.06682E+03  1.364E+00  7.455E+00  6.709E-02  1.682E+00
   1    5    8     3     5    1.0456E+00  1.5790E-01   8.8768E-01  0.000E+00  0.000E+00  0.000E+00  1.06362E+03  1.164E+00  6.655E+00  4.991E-02  1.582E+00
   1    6    8     3     6    8.8768E-01  5.5980E-02   8.3170E-01  0.000E+00  0.000E+00  0.000E+00  1.06158E+03  1.036E+00  6.145E+00  1.844E-02  1.518E+00
   1    5   10     4     1    1.0000E+01  9.0919E-02   9.9091E+00  0.000E+00  0.000E+00  0.000E+00  1.07836E+03  6.368E-01  1.000E+01  2.500E-02  1.212E+00
   1    5    9     4     2    9.9091E+00  1.8158E-01   9.7275E+00  0.000E+00  0.000E+00  0.000E+00  1.07154E+03  6.315E-01  1.000E+01  5.000E-02  1.211E+00
   1    6    8     4     3    9.7275E+00  1.2689E-01   9.6006E+00  0.000E+00  0.000E+00  0.000E+00  1.06381E+03  6.256E-01  1.000E+01  3.500E-02  1.209E+00
   1    6    8     5     1    1.0432E+01  2.2686E-01   1.0205E+01  0.000E+00  0.000E+00  0.000E+00  1.05868E+03  6.790E-01  1.542E+01  6.166E-02  1.226E+00
   1    7    7     5     2    1.0205E+01  2.7894E-01   9.9265E+00  0.000E+00  0.000E+00  0.000E+00  1.05417E+03  6.732E-01  1.519E+01  7.594E-02  1.224E+00
   1    8    7     5     3    9.9265E+00  1.9221E-01   9.7343E+00  0.000E+00  0.000E+00  0.000E+00  1.04992E+03  6.676E-01  1.497E+01  5.241E-02  1.223E+00
   1    8    6     5     4    9.7343E+00  1.3577E-01   9.5985E+00  0.000E+00  0.000E+00  0.000E+00  1.04691E+03  6.637E-01  1.482E+01  3.706E-02  1.221E+00
   1    9    6     6     1    1.2474E+01  2.2801E-01   1.2246E+01  0.000E+00  0.000E+00  0.000E+00  1.04353E+03  8.002E-01  1.200E+01  6.000E-02  1.267E+00
   1   10    7     6     2    1.2246E+01  2.2748E-01   1.2019E+01  0.000E+00  0.000E+00  0.000E+00  1.03897E+03  7.913E-01  1.200E+01  6.000E-02  1.264E+00
   1   11    7     6     3    1.2019E+01  2.2694E-01   1.1792E+01  0.000E+00  0.000E+00  0.000E+00  1.03442E+03  7.824E-01  1.200E+01  6.000E-02  1.261E+00
   1   12    7     6     4    1.1792E+01  2.2640E-01   1.1566E+01  0.000E+00  0.000E+00  0.000E+00  1.02986E+03  7.734E-01  1.200E+01  6.000E-02  1.258E+00
   1   13    7     6     5    1.1566E+01 -4.2171E-02   1.1608E+01  0.000E+00  0.000E+00  0.000E+00  1.02668E+03  7.697E-01  1.200E+01  2.400E-01 -5.857E-02
   1   14    9     7     1    1.5000E+02  1.3671E+00   1.4863E+02  0.000E+00  0.000E+00  0.000E+00  1.03987E+03  2.288E+00  5.529E+01  5.593E-01  8.148E-01
   1   13    8     7     2    1.4863E+02  1.9168E+00   1.4672E+02  0.000E+00  0.000E+00  0.000E+00  1.03478E+03  2.279E+00  5.526E+01  6.148E-01  1.039E+00
   1   13    7     7     3    1.4672E+02  1.5827E+00   1.4513E+02  0.000E+00  0.000E+00  0.000E+00  1.02969E+03  2.270E+00  5.521E+01  5.584E-01  9.448E-01
   1   13    6     8     1    1.5674E+02  9.4596E-01   1.5580E+02  0.000E+00  0.000E+00  0.000E+00  1.02474E+03  2.860E+00  4.148E+01  4.227E-01  7.460E-01
   1   13    5     8     2    1.5580E+02  2.0121E-01   1.5559E+02  0.000E+00  0.000E+00  0.000E+00  1.01848E+03  2.856E+00  4.142E+01  4.221E-01  1.589E-01
   1   13    4     8     3    1.5559E+02 -2.4868E+00   1.5808E+02  0.000E+00  0.000E+00  0.000E+00  1.01224E+03  2.864E+00  4.153E+01  4.232E+00 -1.959E-01
   1   13    3     8     4    1.5808E+02 -3.7630E+00   1.6184E+02  0.000E+00  0.000E+00  0.000E+00  1.00601E+03  2.886E+00  4.184E+01  4.264E+00 -2.942E-01
   1   13    2     8     5    1.6184E+02 -2.7840E+00   1.6463E+02  0.000E+00  0.000E+00  0.000E+00  9.99783E+02  2.908E+00  4.216E+01  4.296E+00 -2.160E-01
   1   13    1     8     6    1.6463E+02 -2.1155E+00   1.6674E+02  0.000E+00  0.000E+00  0.000E+00  9.94799E+02  2.924E+00  4.240E+01  2.592E+00 -2.720E-01
   1    8    6     9     1    3.7200E+00  0.0000E+00   3.7200E+00  0.000E+00  0.000E+00  0.000E+00  1.08000E+03  1.252E+00  4.000E+00  0.000E+00  1.417E+00
   1    8    5     9     2    3.7200E+00  0.0000E+00   3.7200E+00  0.000E+00  0.000E+00  0.000E+00  1.07950E+03  1.252E+00  4.000E+00  0.000E+00  1.417E+00



 UBDSV3 SAVING "           GW ET" ON UNIT  61 AT TIME STEP 7, STRESS PERIOD 5
 UBDSV3 SAVING "    UZF RECHARGE" ON UNIT  61 AT TIME STEP 7, STRESS PERIOD 5
 UBDSV3 SAVING " SURFACE LEAKAGE" ON UNIT  61 AT TIME STEP 7, STRESS PERIOD 5
 UBDSV3 SAVING "       HORT+DUNN" ON UNIT  61 AT TIME STEP 7, STRESS PERIOD 5
 UBDSV3 SAVING "  STORAGE CHANGE" ON UNIT  61 AT TIME STEP 7, STRESS PERIOD 5


UNSATURATED ZONE PACKAGE VOLUMETRIC BUDGET FOR  TIME STEP     7 STRESS PERIOD    5
  ------------------------------------------------------------------------------



     CUMULATIVE VOLUMES      L**3       RATES FOR THIS TIME STEP      L**3/T
     ------------------                 ------------------------

           IN:                                      IN:
           ---                                      ---
        INFILTRATION =     9565594.5696          INFILTRATION =           4.5676

          OUT:                                     OUT:
          ----                                     ----
              UZF ET =     9408437.5532                UZF ET =           4.5675
        UZF RECHARGE =       73224.0000          UZF RECHARGE =       0.0000E+00

            IN - OUT =       83933.0164              IN - OUT =       7.1108E-05

          STORAGE:                                 STORAGE:
          --------                                 --------
      STORAGE CHANGE =       83932.4252        STORAGE CHANGE =       7.1220E-05

 PERCENT DISCREPANCY IS DIFFERENCE BETWEEN IN-OUT MINUS CHANGE IN STORAGE
 DIVIDED BY THE AVERAGE OF IN AND OUT TIMES 100

 PERCENT DISCREPANCY =           0.00     PERCENT DISCREPANCY =           0.00






 

            AG WELLS      PERIOD    5   STEP   7
 AG WELL      1   LAYER   1   ROW     6   COL     4   RATE     0.00000    
 AG WELL      2   LAYER   1   ROW     6   COL     5   RATE     0.00000    
 AG WELL      3   LAYER   1   ROW     7   COL     4   RATE     0.00000    
 AG WELL      4   LAYER   1   ROW     7   COL     5   RATE     0.00000    
 AG WELL      5   LAYER   1   ROW     8   COL     4   RATE     0.00000    
 AG WELL      6   LAYER   1   ROW     8   COL     5   RATE     0.00000    
 
 

   DIVERSION SEGMENTS     PERIOD    5   STEP   7
 SEGMENT      9   RATE     3.72000    
 
 

        SW IRRIGATION     PERIOD    5   STEP   7
 SEGMENT      9   ROW     6   COL     4   RATE    0.620012    
 SEGMENT      9   ROW     6   COL     5   RATE    0.620012    
 SEGMENT      9   ROW     7   COL     4   RATE    0.620012    
 SEGMENT      9   ROW     7   COL     5   RATE    0.620012    
 SEGMENT      9   ROW     8   COL     4   RATE    0.620012    
 SEGMENT      9   ROW     8   COL     5   RATE    0.620012    
 
 

        GW IRRIGATION     PERIOD    5   STEP   7
 AG WELL      1   ROW     6   COL     4   RATE     0.00000    
 AG WELL      2   ROW     6   COL     5   RATE     0.00000    
 AG WELL      3   ROW     7   COL     4   RATE     0.00000    
 AG WELL      4   ROW     7   COL     5   RATE     0.00000    
 AG WELL      5   ROW     8   COL     4   RATE     0.00000    
 AG WELL      6   ROW     8   COL     5   RATE     0.00000    
 
1
  VOLUMETRIC BUDGET FOR AGRICULTURAL FIELDS AT  END OF TIME STEP    7, STRESS PERIOD   5
  ------------------------------------------------------------------------------

     CUMULATIVE VOLUMES      L**3       RATES FOR THIS TIME STEP      L**3/T
     ------------------                 ------------------------

           IN:                                      IN:
           ---                                      ---
               AG WELLS  =       76629.9531                 AG WELLS  =           0.0000
      DIVERSION SEGMENTS =     2208839.5000        DIVERSION SEGMENTS =           3.7200
       IRRIGATION PONDS  =           0.0000         IRRIGATION PONDS  =           0.0000
           GW IRRIGATION =           0.0000             GW IRRIGATION =           0.0000
           SW IRRIGATION =           0.0000             SW IRRIGATION =           0.0000
        SYSTEM LOSSES GW =           0.0000          SYSTEM LOSSES GW =           0.0000
        SYSTEM LOSSES SW =           0.0000          SYSTEM LOSSES SW =           0.0000

                TOTAL IN =     2285469.5000                  TOTAL IN =           3.7200

          OUT:                                     OUT:
          ----                                     ----
               AG WELLS  =           0.0000                 AG WELLS  =           0.0000
      DIVERSION SEGMENTS =           0.0000        DIVERSION SEGMENTS =           0.0000
       IRRIGATION PONDS  =           0.0000         IRRIGATION PONDS  =           0.0000
           GW IRRIGATION =       76629.9531             GW IRRIGATION =           0.0000
           SW IRRIGATION =     2208883.5000             SW IRRIGATION =           3.7201
        SYSTEM LOSSES GW =           0.0000          SYSTEM LOSSES GW =           0.0000
        SYSTEM LOSSES SW =           0.0000          SYSTEM LOSSES SW =           0.0000

               TOTAL OUT =     2285513.5000                 TOTAL OUT =           3.7201

                IN - OUT =         -44.0000                  IN - OUT =      -7.4387E-05

     PERCENT DISCREPANCY =          -0.00         PERCENT DISCREPANCY =          -0.00



1
  VOLUMETRIC BUDGET FOR ENTIRE MODEL AT END OF TIME STEP    7, STRESS PERIOD   5
  ------------------------------------------------------------------------------

     CUMULATIVE VOLUMES      L**3       RATES FOR THIS TIME STEP      L**3/T
     ------------------                 ------------------------

           IN:                                      IN:
           ---                                      ---
             STORAGE     =     5351803.5000               STORAGE     =           1.3979
       CONSTANT HEAD     =           0.0000         CONSTANT HEAD     =           0.0000
     HEAD DEP BOUNDS     =     2472447.7500       HEAD DEP BOUNDS     =           0.2879
      STREAM LEAKAGE     =   100347120.0000        STREAM LEAKAGE     =          11.2282
        UZF RECHARGE     =       73223.9531          UZF RECHARGE     =           0.0000
               GW ET     =           0.0000                 GW ET     =           0.0000
     SURFACE LEAKAGE     =           0.0000       SURFACE LEAKAGE     =           0.0000
           AG WELLS      =           0.0000             AG WELLS      =           0.0000

                TOTAL IN =   108244592.0000                  TOTAL IN =          12.9139

          OUT:                                     OUT:
          ----                                     ----
             STORAGE     =    18436778.0000               STORAGE     =           1.4331
       CONSTANT HEAD     =           0.0000         CONSTANT HEAD     =           0.0000
     HEAD DEP BOUNDS     =     2475474.0000       HEAD DEP BOUNDS     =           0.2894
      STREAM LEAKAGE     =    87259480.0000        STREAM LEAKAGE     =          11.1914
        UZF RECHARGE     =           0.0000          UZF RECHARGE     =           0.0000
               GW ET     =           0.0000                 GW ET     =           0.0000
     SURFACE LEAKAGE     =           0.0000       SURFACE LEAKAGE     =           0.0000
           AG WELLS      =       76629.9531             AG WELLS      =           0.0000

               TOTAL OUT =   108248360.0000                 TOTAL OUT =          12.9139

                IN - OUT =       -3768.0000                  IN - OUT =       3.4332E-05

     PERCENT DISCREPANCY =          -0.00         PERCENT DISCREPANCY =           0.00






         TIME SUMMARY AT END OF TIME STEP    7 IN STRESS PERIOD    5
                    SECONDS     MINUTES      HOURS       DAYS        YEARS
                    -----------------------------------------------------------
   TIME STEP LENGTH  87667.      1461.1      24.352      1.0147     2.77799E-03
 STRESS PERIOD TIME 6.13667E+05  10228.      170.46      7.1026     1.94459E-02
         TOTAL TIME 8.59006E+06 1.43168E+05  2386.1      99.422     0.27220    
1
 
 SOLVING FOR HEAD 
                                                   Max.-Head-Change                         Max.-Flux-Residual
  Residual-Control   Outer-Iter.   Inner-Iter.     Column Row Layer    Maximum-Head-Change  Column Row Layer    Maximum-Flux-Residual          L2-NORM 
          0                 1           2             2   13     1      -0.2935199062E-02       2   13    1        -0.1647812451E+00      0.3847157858E+00
          0                 2           2             2   13     1       0.2745977960E-03       2   13    1         0.1584631921E-01      0.3790103594E-01
          0                 3           2             4    7     1      -0.1154088640E-01       4    8    1        -0.6198616833E+00      0.1525274207E+01
          0                 4           2             4    7     1       0.1201643410E-01       4    8    1         0.6633958745E+00      0.1624827404E+01
          0                 5           2             4    7     1      -0.4782675195E-03       4    6    1        -0.2715903993E-01      0.6648646290E-01
          0                 6           1             4    7     1       0.5903663982E-05       4    6    1         0.3445632747E-03      0.8435187766E-03

    ------------------------------------------------
       NWT REQUIRED            6 OUTER ITERATIONS 
       AND A TOTAL OF         11 INNER ITERATIONS.
    ------------------------------------------------

 OUTPUT CONTROL FOR STRESS PERIOD    5   TIME STEP    8
    PRINT BUDGET
    SAVE BUDGET
 UBDSV1 SAVING "         STORAGE" ON UNIT 102 AT TIME STEP 8, STRESS PERIOD 5
 UBDSV2 SAVING "   CONSTANT HEAD" ON UNIT 102 AT TIME STEP 8, STRESS PERIOD 5
 UBDSV1 SAVING "FLOW RIGHT FACE " ON UNIT 102 AT TIME STEP 8, STRESS PERIOD 5
 UBDSV1 SAVING "FLOW FRONT FACE " ON UNIT 102 AT TIME STEP 8, STRESS PERIOD 5

  HEAD DEP BOUNDS   PERIOD    5   STEP     8
 BOUNDARY      1   LAYER   1   ROW    13   COL     1   RATE   -0.289271    
 BOUNDARY      2   LAYER   1   ROW    14   COL     9   RATE    0.287888    



 STREAM LISTING     PERIOD      5   STEP        8

 LAYER ROW COL. STREAM  RCH.  FLOW INTO     FLOW TO   FLOW OUT OF   OVRLND.     DIRECT     STREAM       STREAM     STREAM     STREAM   STREAMBED  STREAMBED
                SEG.NO.  NO.  STRM. RCH.    AQUIFER    STRM. RCH.    RUNOFF     PRECIP       ET          HEAD       DEPTH      WIDTH   CONDCTNC.   GRADIENT

   1    1    1     1     1    1.0500E+01  1.5271E-01   1.0347E+01  0.000E+00  0.000E+00  0.000E+00  1.09396E+03  9.109E-01  8.677E+00  3.905E-02  1.304E+00
   1    2    2     1     2    1.0347E+01  2.3505E-01   1.0112E+01  0.000E+00  0.000E+00  0.000E+00  1.08896E+03  9.059E-01  8.597E+00  6.018E-02  1.302E+00
   1    3    3     1     3    1.0112E+01  1.9904E-01   9.9132E+00  0.000E+00  0.000E+00  0.000E+00  1.08332E+03  9.003E-01  8.505E+00  5.103E-02  1.300E+00
   1    3    4     1     4    9.9132E+00  1.8195E-01   9.7313E+00  0.000E+00  0.000E+00  0.000E+00  1.07830E+03  8.947E-01  8.417E+00  4.672E-02  1.298E+00
   1    4    5     2     1    7.7313E+00  2.8007E-01   7.4512E+00  0.000E+00  0.000E+00  0.000E+00  1.07252E+03  5.907E-01  1.200E+01  7.800E-02  1.197E+00
   1    5    6     2     2    7.4512E+00  2.1474E-01   7.2365E+00  0.000E+00  0.000E+00  0.000E+00  1.06709E+03  5.790E-01  1.200E+01  6.000E-02  1.193E+00
   1    6    6     2     3    7.2365E+00  2.1413E-01   7.0224E+00  0.000E+00  0.000E+00  0.000E+00  1.06236E+03  5.688E-01  1.200E+01  6.000E-02  1.190E+00
   1    7    6     2     4    7.0224E+00  2.1351E-01   6.8088E+00  0.000E+00  0.000E+00  0.000E+00  1.05763E+03  5.585E-01  1.200E+01  6.000E-02  1.186E+00
   1    8    6     2     5    6.8088E+00  2.1289E-01   6.5960E+00  0.000E+00  0.000E+00  0.000E+00  1.05291E+03  5.481E-01  1.200E+01  6.000E-02  1.183E+00
   1    3    5     3     1    2.0000E+00  2.8252E-01   1.7175E+00  0.000E+00  0.000E+00  0.000E+00  1.07555E+03  1.909E+00  9.636E+00  7.227E-02  1.955E+00
   1    3    6     3     2    1.7175E+00  2.4905E-01   1.4684E+00  0.000E+00  0.000E+00  0.000E+00  1.07264E+03  1.727E+00  8.909E+00  6.682E-02  1.864E+00
   1    3    7     3     3    1.4684E+00  1.9718E-01   1.2712E+00  0.000E+00  0.000E+00  0.000E+00  1.06987E+03  1.555E+00  8.218E+00  5.547E-02  1.777E+00
   1    4    8     3     4    1.2712E+00  2.2567E-01   1.0456E+00  0.000E+00  0.000E+00  0.000E+00  1.06682E+03  1.364E+00  7.455E+00  6.709E-02  1.682E+00
   1    5    8     3     5    1.0456E+00  1.5790E-01   8.8768E-01  0.000E+00  0.000E+00  0.000E+00  1.06362E+03  1.164E+00  6.655E+00  4.991E-02  1.582E+00
   1    6    8     3     6    8.8768E-01  5.5980E-02   8.3170E-01  0.000E+00  0.000E+00  0.000E+00  1.06158E+03  1.036E+00  6.145E+00  1.844E-02  1.518E+00
   1    5   10     4     1    1.0000E+01  9.0919E-02   9.9091E+00  0.000E+00  0.000E+00  0.000E+00  1.07836E+03  6.368E-01  1.000E+01  2.500E-02  1.212E+00
   1    5    9     4     2    9.9091E+00  1.8158E-01   9.7275E+00  0.000E+00  0.000E+00  0.000E+00  1.07154E+03  6.315E-01  1.000E+01  5.000E-02  1.211E+00
   1    6    8     4     3    9.7275E+00  1.2689E-01   9.6006E+00  0.000E+00  0.000E+00  0.000E+00  1.06381E+03  6.256E-01  1.000E+01  3.500E-02  1.209E+00
   1    6    8     5     1    1.0432E+01  2.2686E-01   1.0205E+01  0.000E+00  0.000E+00  0.000E+00  1.05868E+03  6.790E-01  1.542E+01  6.166E-02  1.226E+00
   1    7    7     5     2    1.0205E+01  2.7894E-01   9.9265E+00  0.000E+00  0.000E+00  0.000E+00  1.05417E+03  6.732E-01  1.519E+01  7.594E-02  1.224E+00
   1    8    7     5     3    9.9265E+00  1.9221E-01   9.7343E+00  0.000E+00  0.000E+00  0.000E+00  1.04992E+03  6.676E-01  1.497E+01  5.241E-02  1.223E+00
   1    8    6     5     4    9.7343E+00  1.3577E-01   9.5985E+00  0.000E+00  0.000E+00  0.000E+00  1.04691E+03  6.637E-01  1.482E+01  3.706E-02  1.221E+00
   1    9    6     6     1    1.2474E+01  2.2801E-01   1.2246E+01  0.000E+00  0.000E+00  0.000E+00  1.04353E+03  8.002E-01  1.200E+01  6.000E-02  1.267E+00
   1   10    7     6     2    1.2246E+01  2.2748E-01   1.2019E+01  0.000E+00  0.000E+00  0.000E+00  1.03897E+03  7.913E-01  1.200E+01  6.000E-02  1.264E+00
   1   11    7     6     3    1.2019E+01  2.2694E-01   1.1792E+01  0.000E+00  0.000E+00  0.000E+00  1.03442E+03  7.824E-01  1.200E+01  6.000E-02  1.261E+00
   1   12    7     6     4    1.1792E+01  2.2640E-01   1.1566E+01  0.000E+00  0.000E+00  0.000E+00  1.02986E+03  7.734E-01  1.200E+01  6.000E-02  1.258E+00
   1   13    7     6     5    1.1566E+01 -4.2066E-02   1.1608E+01  0.000E+00  0.000E+00  0.000E+00  1.02668E+03  7.697E-01  1.200E+01  2.400E-01 -5.843E-02
   1   14    9     7     1    1.5000E+02  1.3671E+00   1.4863E+02  0.000E+00  0.000E+00  0.000E+00  1.03987E+03  2.288E+00  5.529E+01  5.593E-01  8.148E-01
   1   13    8     7     2    1.4863E+02  1.9168E+00   1.4672E+02  0.000E+00  0.000E+00  0.000E+00  1.03478E+03  2.279E+00  5.526E+01  6.148E-01  1.039E+00
   1   13    7     7     3    1.4672E+02  1.5830E+00   1.4513E+02  0.000E+00  0.000E+00  0.000E+00  1.02969E+03  2.270E+00  5.521E+01  5.584E-01  9.449E-01
   1   13    6     8     1    1.5674E+02  9.4631E-01   1.5579E+02  0.000E+00  0.000E+00  0.000E+00  1.02474E+03  2.860E+00  4.148E+01  4.227E-01  7.463E-01
   1   13    5     8     2    1.5579E+02  2.0153E-01   1.5559E+02  0.000E+00  0.000E+00  0.000E+00  1.01848E+03  2.856E+00  4.142E+01  4.221E-01  1.592E-01
   1   13    4     8     3    1.5559E+02 -2.4717E+00   1.5806E+02  0.000E+00  0.000E+00  0.000E+00  1.01224E+03  2.864E+00  4.153E+01  4.232E+00 -1.947E-01
   1   13    3     8     4    1.5806E+02 -3.7486E+00   1.6181E+02  0.000E+00  0.000E+00  0.000E+00  1.00601E+03  2.885E+00  4.184E+01  4.264E+00 -2.931E-01
   1   13    2     8     5    1.6181E+02 -2.7680E+00   1.6458E+02  0.000E+00  0.000E+00  0.000E+00  9.99782E+02  2.907E+00  4.216E+01  4.296E+00 -2.148E-01
   1   13    1     8     6    1.6458E+02 -2.1094E+00   1.6669E+02  0.000E+00  0.000E+00  0.000E+00  9.94799E+02  2.924E+00  4.239E+01  2.592E+00 -2.713E-01
   1    8    6     9     1    3.7200E+00  0.0000E+00   3.7200E+00  0.000E+00  0.000E+00  0.000E+00  1.08000E+03  1.252E+00  4.000E+00  0.000E+00  1.417E+00
   1    8    5     9     2    3.7200E+00  0.0000E+00   3.7200E+00  0.000E+00  0.000E+00  0.000E+00  1.07950E+03  1.252E+00  4.000E+00  0.000E+00  1.417E+00



 UBDSV3 SAVING "           GW ET" ON UNIT  61 AT TIME STEP 8, STRESS PERIOD 5
 UBDSV3 SAVING "    UZF RECHARGE" ON UNIT  61 AT TIME STEP 8, STRESS PERIOD 5
 UBDSV3 SAVING " SURFACE LEAKAGE" ON UNIT  61 AT TIME STEP 8, STRESS PERIOD 5
 UBDSV3 SAVING "       HORT+DUNN" ON UNIT  61 AT TIME STEP 8, STRESS PERIOD 5
 UBDSV3 SAVING "  STORAGE CHANGE" ON UNIT  61 AT TIME STEP 8, STRESS PERIOD 5


UNSATURATED ZONE PACKAGE VOLUMETRIC BUDGET FOR  TIME STEP     8 STRESS PERIOD    5
  ------------------------------------------------------------------------------



     CUMULATIVE VOLUMES      L**3       RATES FOR THIS TIME STEP      L**3/T
     ------------------                 ------------------------

           IN:                                      IN:
           ---                                      ---
        INFILTRATION =     9966018.1436          INFILTRATION =           4.5676

          OUT:                                     OUT:
          ----                                     ----
              UZF ET =     9808855.0374                UZF ET =           4.5675
        UZF RECHARGE =       73224.0000          UZF RECHARGE =       0.0000E+00

            IN - OUT =       83939.1063              IN - OUT =       6.9320E-05

          STORAGE:                                 STORAGE:
          --------                                 --------
      STORAGE CHANGE =       83938.5051        STORAGE CHANGE =       6.9353E-05

 PERCENT DISCREPANCY IS DIFFERENCE BETWEEN IN-OUT MINUS CHANGE IN STORAGE
 DIVIDED BY THE AVERAGE OF IN AND OUT TIMES 100

 PERCENT DISCREPANCY =           0.00     PERCENT DISCREPANCY =           0.00






 

            AG WELLS      PERIOD    5   STEP   8
 AG WELL      1   LAYER   1   ROW     6   COL     4   RATE     0.00000    
 AG WELL      2   LAYER   1   ROW     6   COL     5   RATE     0.00000    
 AG WELL      3   LAYER   1   ROW     7   COL     4   RATE     0.00000    
 AG WELL      4   LAYER   1   ROW     7   COL     5   RATE     0.00000    
 AG WELL      5   LAYER   1   ROW     8   COL     4   RATE     0.00000    
 AG WELL      6   LAYER   1   ROW     8   COL     5   RATE     0.00000    
 
 

   DIVERSION SEGMENTS     PERIOD    5   STEP   8
 SEGMENT      9   RATE     3.72000    
 
 

        SW IRRIGATION     PERIOD    5   STEP   8
 SEGMENT      9   ROW     6   COL     4   RATE    0.620012    
 SEGMENT      9   ROW     6   COL     5   RATE    0.620012    
 SEGMENT      9   ROW     7   COL     4   RATE    0.620012    
 SEGMENT      9   ROW     7   COL     5   RATE    0.620012    
 SEGMENT      9   ROW     8   COL     4   RATE    0.620012    
 SEGMENT      9   ROW     8   COL     5   RATE    0.620012    
 
 

        GW IRRIGATION     PERIOD    5   STEP   8
 AG WELL      1   ROW     6   COL     4   RATE     0.00000    
 AG WELL      2   ROW     6   COL     5   RATE     0.00000    
 AG WELL      3   ROW     7   COL     4   RATE     0.00000    
 AG WELL      4   ROW     7   COL     5   RATE     0.00000    
 AG WELL      5   ROW     8   COL     4   RATE     0.00000    
 AG WELL      6   ROW     8   COL     5   RATE     0.00000    
 
1
  VOLUMETRIC BUDGET FOR AGRICULTURAL FIELDS AT  END OF TIME STEP    8, STRESS PERIOD   5
  ------------------------------------------------------------------------------

     CUMULATIVE VOLUMES      L**3       RATES FOR THIS TIME STEP      L**3/T
     ------------------                 ------------------------

           IN:                                      IN:
           ---                                      ---
               AG WELLS  =       76629.9531                 AG WELLS  =           0.0000
      DIVERSION SEGMENTS =     2534959.0000        DIVERSION SEGMENTS =           3.7200
       IRRIGATION PONDS  =           0.0000         IRRIGATION PONDS  =           0.0000
           GW IRRIGATION =           0.0000             GW IRRIGATION =           0.0000
           SW IRRIGATION =           0.0000             SW IRRIGATION =           0.0000
        SYSTEM LOSSES GW =           0.0000          SYSTEM LOSSES GW =           0.0000
        SYSTEM LOSSES SW =           0.0000          SYSTEM LOSSES SW =           0.0000

                TOTAL IN =     2611589.0000                  TOTAL IN =           3.7200

          OUT:                                     OUT:
          ----                                     ----
               AG WELLS  =           0.0000                 AG WELLS  =           0.0000
      DIVERSION SEGMENTS =           0.0000        DIVERSION SEGMENTS =           0.0000
       IRRIGATION PONDS  =           0.0000         IRRIGATION PONDS  =           0.0000
           GW IRRIGATION =       76629.9531             GW IRRIGATION =           0.0000
           SW IRRIGATION =     2535009.5000             SW IRRIGATION =           3.7201
        SYSTEM LOSSES GW =           0.0000          SYSTEM LOSSES GW =           0.0000
        SYSTEM LOSSES SW =           0.0000          SYSTEM LOSSES SW =           0.0000

               TOTAL OUT =     2611639.5000                 TOTAL OUT =           3.7201

                IN - OUT =         -50.5000                  IN - OUT =      -7.4148E-05

     PERCENT DISCREPANCY =          -0.00         PERCENT DISCREPANCY =          -0.00



1
  VOLUMETRIC BUDGET FOR ENTIRE MODEL AT END OF TIME STEP    8, STRESS PERIOD   5
  ------------------------------------------------------------------------------

     CUMULATIVE VOLUMES      L**3       RATES FOR THIS TIME STEP      L**3/T
     ------------------                 ------------------------

           IN:                                      IN:
           ---                                      ---
             STORAGE     =     5469004.0000               STORAGE     =           1.3369
       CONSTANT HEAD     =           0.0000         CONSTANT HEAD     =           0.0000
     HEAD DEP BOUNDS     =     2497686.0000       HEAD DEP BOUNDS     =           0.2879
      STREAM LEAKAGE     =   101331536.0000        STREAM LEAKAGE     =          11.2291
        UZF RECHARGE     =       73223.9531          UZF RECHARGE     =           0.0000
               GW ET     =           0.0000                 GW ET     =           0.0000
     SURFACE LEAKAGE     =           0.0000       SURFACE LEAKAGE     =           0.0000
           AG WELLS      =           0.0000             AG WELLS      =           0.0000

                TOTAL IN =   109371448.0000                  TOTAL IN =          12.8539

          OUT:                                     OUT:
          ----                                     ----
             STORAGE     =    18561694.0000               STORAGE     =           1.4249
       CONSTANT HEAD     =           0.0000         CONSTANT HEAD     =           0.0000
     HEAD DEP BOUNDS     =     2500833.5000       HEAD DEP BOUNDS     =           0.2893
      STREAM LEAKAGE     =    88236056.0000        STREAM LEAKAGE     =          11.1397
        UZF RECHARGE     =           0.0000          UZF RECHARGE     =           0.0000
               GW ET     =           0.0000                 GW ET     =           0.0000
     SURFACE LEAKAGE     =           0.0000       SURFACE LEAKAGE     =           0.0000
           AG WELLS      =       76629.9531             AG WELLS      =           0.0000

               TOTAL OUT =   109375216.0000                 TOTAL OUT =          12.8538

                IN - OUT =       -3768.0000                  IN - OUT =       3.4332E-05

     PERCENT DISCREPANCY =          -0.00         PERCENT DISCREPANCY =           0.00






         TIME SUMMARY AT END OF TIME STEP    8 IN STRESS PERIOD    5
                    SECONDS     MINUTES      HOURS       DAYS        YEARS
                    -----------------------------------------------------------
   TIME STEP LENGTH  87667.      1461.1      24.352      1.0147     2.77799E-03
 STRESS PERIOD TIME 7.01333E+05  11689.      194.81      8.1173     2.22239E-02
         TOTAL TIME 8.67773E+06 1.44629E+05  2410.5      100.44     0.27498    
1
 
 SOLVING FOR HEAD 
                                                   Max.-Head-Change                         Max.-Flux-Residual
  Residual-Control   Outer-Iter.   Inner-Iter.     Column Row Layer    Maximum-Head-Change  Column Row Layer    Maximum-Flux-Residual          L2-NORM 
          0                 1           2             2   13     1      -0.2624279803E-02       2   13    1        -0.1472986234E+00      0.3612420171E+00
          0                 2           2             2   13     1       0.2457570574E-03       2   13    1         0.1417931670E-01      0.3564407077E-01
          0                 3           2             4    7     1      -0.1154086507E-01       4    8    1        -0.6198612066E+00      0.1525276967E+01
          0                 4           2             4    7     1       0.1201643489E-01       4    8    1         0.6633956820E+00      0.1624836000E+01
          0                 5           2             4    7     1      -0.4782697944E-03       4    6    1        -0.2718114244E-01      0.6649517883E-01
          0                 6           1             4    7     1       0.5901648369E-05       4    6    1         0.3447243789E-03      0.8433357837E-03

    ------------------------------------------------
       NWT REQUIRED            6 OUTER ITERATIONS 
       AND A TOTAL OF         11 INNER ITERATIONS.
    ------------------------------------------------

 OUTPUT CONTROL FOR STRESS PERIOD    5   TIME STEP    9
    PRINT BUDGET
    SAVE BUDGET
 UBDSV1 SAVING "         STORAGE" ON UNIT 102 AT TIME STEP 9, STRESS PERIOD 5
 UBDSV2 SAVING "   CONSTANT HEAD" ON UNIT 102 AT TIME STEP 9, STRESS PERIOD 5
 UBDSV1 SAVING "FLOW RIGHT FACE " ON UNIT 102 AT TIME STEP 9, STRESS PERIOD 5
 UBDSV1 SAVING "FLOW FRONT FACE " ON UNIT 102 AT TIME STEP 9, STRESS PERIOD 5

  HEAD DEP BOUNDS   PERIOD    5   STEP     9
 BOUNDARY      1   LAYER   1   ROW    13   COL     1   RATE   -0.289176    
 BOUNDARY      2   LAYER   1   ROW    14   COL     9   RATE    0.287889    



 STREAM LISTING     PERIOD      5   STEP        9

 LAYER ROW COL. STREAM  RCH.  FLOW INTO     FLOW TO   FLOW OUT OF   OVRLND.     DIRECT     STREAM       STREAM     STREAM     STREAM   STREAMBED  STREAMBED
                SEG.NO.  NO.  STRM. RCH.    AQUIFER    STRM. RCH.    RUNOFF     PRECIP       ET          HEAD       DEPTH      WIDTH   CONDCTNC.   GRADIENT

   1    1    1     1     1    1.0500E+01  1.5271E-01   1.0347E+01  0.000E+00  0.000E+00  0.000E+00  1.09396E+03  9.109E-01  8.677E+00  3.905E-02  1.304E+00
   1    2    2     1     2    1.0347E+01  2.3505E-01   1.0112E+01  0.000E+00  0.000E+00  0.000E+00  1.08896E+03  9.059E-01  8.597E+00  6.018E-02  1.302E+00
   1    3    3     1     3    1.0112E+01  1.9904E-01   9.9132E+00  0.000E+00  0.000E+00  0.000E+00  1.08332E+03  9.003E-01  8.505E+00  5.103E-02  1.300E+00
   1    3    4     1     4    9.9132E+00  1.8195E-01   9.7313E+00  0.000E+00  0.000E+00  0.000E+00  1.07830E+03  8.947E-01  8.417E+00  4.672E-02  1.298E+00
   1    4    5     2     1    7.7313E+00  2.8007E-01   7.4512E+00  0.000E+00  0.000E+00  0.000E+00  1.07252E+03  5.907E-01  1.200E+01  7.800E-02  1.197E+00
   1    5    6     2     2    7.4512E+00  2.1474E-01   7.2365E+00  0.000E+00  0.000E+00  0.000E+00  1.06709E+03  5.790E-01  1.200E+01  6.000E-02  1.193E+00
   1    6    6     2     3    7.2365E+00  2.1413E-01   7.0224E+00  0.000E+00  0.000E+00  0.000E+00  1.06236E+03  5.688E-01  1.200E+01  6.000E-02  1.190E+00
   1    7    6     2     4    7.0224E+00  2.1351E-01   6.8088E+00  0.000E+00  0.000E+00  0.000E+00  1.05763E+03  5.585E-01  1.200E+01  6.000E-02  1.186E+00
   1    8    6     2     5    6.8088E+00  2.1289E-01   6.5960E+00  0.000E+00  0.000E+00  0.000E+00  1.05291E+03  5.481E-01  1.200E+01  6.000E-02  1.183E+00
   1    3    5     3     1    2.0000E+00  2.8252E-01   1.7175E+00  0.000E+00  0.000E+00  0.000E+00  1.07555E+03  1.909E+00  9.636E+00  7.227E-02  1.955E+00
   1    3    6     3     2    1.7175E+00  2.4905E-01   1.4684E+00  0.000E+00  0.000E+00  0.000E+00  1.07264E+03  1.727E+00  8.909E+00  6.682E-02  1.864E+00
   1    3    7     3     3    1.4684E+00  1.9718E-01   1.2712E+00  0.000E+00  0.000E+00  0.000E+00  1.06987E+03  1.555E+00  8.218E+00  5.547E-02  1.777E+00
   1    4    8     3     4    1.2712E+00  2.2567E-01   1.0456E+00  0.000E+00  0.000E+00  0.000E+00  1.06682E+03  1.364E+00  7.455E+00  6.709E-02  1.682E+00
   1    5    8     3     5    1.0456E+00  1.5790E-01   8.8768E-01  0.000E+00  0.000E+00  0.000E+00  1.06362E+03  1.164E+00  6.655E+00  4.991E-02  1.582E+00
   1    6    8     3     6    8.8768E-01  5.5980E-02   8.3170E-01  0.000E+00  0.000E+00  0.000E+00  1.06158E+03  1.036E+00  6.145E+00  1.844E-02  1.518E+00
   1    5   10     4     1    1.0000E+01  9.0919E-02   9.9091E+00  0.000E+00  0.000E+00  0.000E+00  1.07836E+03  6.368E-01  1.000E+01  2.500E-02  1.212E+00
   1    5    9     4     2    9.9091E+00  1.8158E-01   9.7275E+00  0.000E+00  0.000E+00  0.000E+00  1.07154E+03  6.315E-01  1.000E+01  5.000E-02  1.211E+00
   1    6    8     4     3    9.7275E+00  1.2689E-01   9.6006E+00  0.000E+00  0.000E+00  0.000E+00  1.06381E+03  6.256E-01  1.000E+01  3.500E-02  1.209E+00
   1    6    8     5     1    1.0432E+01  2.2686E-01   1.0205E+01  0.000E+00  0.000E+00  0.000E+00  1.05868E+03  6.790E-01  1.542E+01  6.166E-02  1.226E+00
   1    7    7     5     2    1.0205E+01  2.7894E-01   9.9265E+00  0.000E+00  0.000E+00  0.000E+00  1.05417E+03  6.732E-01  1.519E+01  7.594E-02  1.224E+00
   1    8    7     5     3    9.9265E+00  1.9221E-01   9.7343E+00  0.000E+00  0.000E+00  0.000E+00  1.04992E+03  6.676E-01  1.497E+01  5.241E-02  1.223E+00
   1    8    6     5     4    9.7343E+00  1.3577E-01   9.5985E+00  0.000E+00  0.000E+00  0.000E+00  1.04691E+03  6.637E-01  1.482E+01  3.706E-02  1.221E+00
   1    9    6     6     1    1.2474E+01  2.2801E-01   1.2246E+01  0.000E+00  0.000E+00  0.000E+00  1.04353E+03  8.002E-01  1.200E+01  6.000E-02  1.267E+00
   1   10    7     6     2    1.2246E+01  2.2748E-01   1.2019E+01  0.000E+00  0.000E+00  0.000E+00  1.03897E+03  7.913E-01  1.200E+01  6.000E-02  1.264E+00
   1   11    7     6     3    1.2019E+01  2.2694E-01   1.1792E+01  0.000E+00  0.000E+00  0.000E+00  1.03442E+03  7.824E-01  1.200E+01  6.000E-02  1.261E+00
   1   12    7     6     4    1.1792E+01  2.2640E-01   1.1566E+01  0.000E+00  0.000E+00  0.000E+00  1.02986E+03  7.734E-01  1.200E+01  6.000E-02  1.258E+00
   1   13    7     6     5    1.1566E+01 -4.1964E-02   1.1608E+01  0.000E+00  0.000E+00  0.000E+00  1.02668E+03  7.697E-01  1.200E+01  2.400E-01 -5.828E-02
   1   14    9     7     1    1.5000E+02  1.3671E+00   1.4863E+02  0.000E+00  0.000E+00  0.000E+00  1.03987E+03  2.288E+00  5.529E+01  5.593E-01  8.148E-01
   1   13    8     7     2    1.4863E+02  1.9168E+00   1.4672E+02  0.000E+00  0.000E+00  0.000E+00  1.03478E+03  2.279E+00  5.526E+01  6.148E-01  1.039E+00
   1   13    7     7     3    1.4672E+02  1.5832E+00   1.4513E+02  0.000E+00  0.000E+00  0.000E+00  1.02969E+03  2.270E+00  5.521E+01  5.584E-01  9.451E-01
   1   13    6     8     1    1.5674E+02  9.4665E-01   1.5579E+02  0.000E+00  0.000E+00  0.000E+00  1.02474E+03  2.860E+00  4.148E+01  4.227E-01  7.466E-01
   1   13    5     8     2    1.5579E+02  2.0185E-01   1.5559E+02  0.000E+00  0.000E+00  0.000E+00  1.01848E+03  2.856E+00  4.142E+01  4.221E-01  1.594E-01
   1   13    4     8     3    1.5559E+02 -2.4579E+00   1.5805E+02  0.000E+00  0.000E+00  0.000E+00  1.01224E+03  2.864E+00  4.153E+01  4.232E+00 -1.936E-01
   1   13    3     8     4    1.5805E+02 -3.7352E+00   1.6179E+02  0.000E+00  0.000E+00  0.000E+00  1.00601E+03  2.885E+00  4.184E+01  4.263E+00 -2.920E-01
   1   13    2     8     5    1.6179E+02 -2.7531E+00   1.6454E+02  0.000E+00  0.000E+00  0.000E+00  9.99782E+02  2.907E+00  4.215E+01  4.296E+00 -2.136E-01
   1   13    1     8     6    1.6454E+02 -2.1035E+00   1.6664E+02  0.000E+00  0.000E+00  0.000E+00  9.94798E+02  2.923E+00  4.239E+01  2.592E+00 -2.706E-01
   1    8    6     9     1    3.7200E+00  0.0000E+00   3.7200E+00  0.000E+00  0.000E+00  0.000E+00  1.08000E+03  1.252E+00  4.000E+00  0.000E+00  1.417E+00
   1    8    5     9     2    3.7200E+00  0.0000E+00   3.7200E+00  0.000E+00  0.000E+00  0.000E+00  1.07950E+03  1.252E+00  4.000E+00  0.000E+00  1.417E+00



 UBDSV3 SAVING "           GW ET" ON UNIT  61 AT TIME STEP 9, STRESS PERIOD 5
 UBDSV3 SAVING "    UZF RECHARGE" ON UNIT  61 AT TIME STEP 9, STRESS PERIOD 5
 UBDSV3 SAVING " SURFACE LEAKAGE" ON UNIT  61 AT TIME STEP 9, STRESS PERIOD 5
 UBDSV3 SAVING "       HORT+DUNN" ON UNIT  61 AT TIME STEP 9, STRESS PERIOD 5
 UBDSV3 SAVING "  STORAGE CHANGE" ON UNIT  61 AT TIME STEP 9, STRESS PERIOD 5


UNSATURATED ZONE PACKAGE VOLUMETRIC BUDGET FOR  TIME STEP     9 STRESS PERIOD    5
  ------------------------------------------------------------------------------



     CUMULATIVE VOLUMES      L**3       RATES FOR THIS TIME STEP      L**3/T
     ------------------                 ------------------------

           IN:                                      IN:
           ---                                      ---
        INFILTRATION =    10366441.6004          INFILTRATION =           4.5676

          OUT:                                     OUT:
          ----                                     ----
              UZF ET =    10209272.5371                UZF ET =           4.5675
        UZF RECHARGE =       73224.0000          UZF RECHARGE =       0.0000E+00

            IN - OUT =       83945.0633              IN - OUT =       6.7651E-05

          STORAGE:                                 STORAGE:
          --------                                 --------
      STORAGE CHANGE =       83944.4586        STORAGE CHANGE =       6.7910E-05

 PERCENT DISCREPANCY IS DIFFERENCE BETWEEN IN-OUT MINUS CHANGE IN STORAGE
 DIVIDED BY THE AVERAGE OF IN AND OUT TIMES 100

 PERCENT DISCREPANCY =           0.00     PERCENT DISCREPANCY =          -0.00






 

            AG WELLS      PERIOD    5   STEP   9
 AG WELL      1   LAYER   1   ROW     6   COL     4   RATE     0.00000    
 AG WELL      2   LAYER   1   ROW     6   COL     5   RATE     0.00000    
 AG WELL      3   LAYER   1   ROW     7   COL     4   RATE     0.00000    
 AG WELL      4   LAYER   1   ROW     7   COL     5   RATE     0.00000    
 AG WELL      5   LAYER   1   ROW     8   COL     4   RATE     0.00000    
 AG WELL      6   LAYER   1   ROW     8   COL     5   RATE     0.00000    
 
 

   DIVERSION SEGMENTS     PERIOD    5   STEP   9
 SEGMENT      9   RATE     3.71999    
 
 

        SW IRRIGATION     PERIOD    5   STEP   9
 SEGMENT      9   ROW     6   COL     4   RATE    0.620011    
 SEGMENT      9   ROW     6   COL     5   RATE    0.620011    
 SEGMENT      9   ROW     7   COL     4   RATE    0.620011    
 SEGMENT      9   ROW     7   COL     5   RATE    0.620011    
 SEGMENT      9   ROW     8   COL     4   RATE    0.620011    
 SEGMENT      9   ROW     8   COL     5   RATE    0.620011    
 
 

        GW IRRIGATION     PERIOD    5   STEP   9
 AG WELL      1   ROW     6   COL     4   RATE     0.00000    
 AG WELL      2   ROW     6   COL     5   RATE     0.00000    
 AG WELL      3   ROW     7   COL     4   RATE     0.00000    
 AG WELL      4   ROW     7   COL     5   RATE     0.00000    
 AG WELL      5   ROW     8   COL     4   RATE     0.00000    
 AG WELL      6   ROW     8   COL     5   RATE     0.00000    
 
1
  VOLUMETRIC BUDGET FOR AGRICULTURAL FIELDS AT  END OF TIME STEP    9, STRESS PERIOD   5
  ------------------------------------------------------------------------------

     CUMULATIVE VOLUMES      L**3       RATES FOR THIS TIME STEP      L**3/T
     ------------------                 ------------------------

           IN:                                      IN:
           ---                                      ---
               AG WELLS  =       76629.9531                 AG WELLS  =           0.0000
      DIVERSION SEGMENTS =     2861078.5000        DIVERSION SEGMENTS =           3.7200
       IRRIGATION PONDS  =           0.0000         IRRIGATION PONDS  =           0.0000
           GW IRRIGATION =           0.0000             GW IRRIGATION =           0.0000
           SW IRRIGATION =           0.0000             SW IRRIGATION =           0.0000
        SYSTEM LOSSES GW =           0.0000          SYSTEM LOSSES GW =           0.0000
        SYSTEM LOSSES SW =           0.0000          SYSTEM LOSSES SW =           0.0000

                TOTAL IN =     2937708.5000                  TOTAL IN =           3.7200

          OUT:                                     OUT:
          ----                                     ----
               AG WELLS  =           0.0000                 AG WELLS  =           0.0000
      DIVERSION SEGMENTS =           0.0000        DIVERSION SEGMENTS =           0.0000
       IRRIGATION PONDS  =           0.0000         IRRIGATION PONDS  =           0.0000
           GW IRRIGATION =       76629.9531             GW IRRIGATION =           0.0000
           SW IRRIGATION =     2861135.5000             SW IRRIGATION =           3.7201
        SYSTEM LOSSES GW =           0.0000          SYSTEM LOSSES GW =           0.0000
        SYSTEM LOSSES SW =           0.0000          SYSTEM LOSSES SW =           0.0000

               TOTAL OUT =     2937765.5000                 TOTAL OUT =           3.7201

                IN - OUT =         -57.0000                  IN - OUT =      -7.4148E-05

     PERCENT DISCREPANCY =          -0.00         PERCENT DISCREPANCY =          -0.00



1
  VOLUMETRIC BUDGET FOR ENTIRE MODEL AT END OF TIME STEP    9, STRESS PERIOD   5
  ------------------------------------------------------------------------------

     CUMULATIVE VOLUMES      L**3       RATES FOR THIS TIME STEP      L**3/T
     ------------------                 ------------------------

           IN:                                      IN:
           ---                                      ---
             STORAGE     =     5581265.0000               STORAGE     =           1.2805
       CONSTANT HEAD     =           0.0000         CONSTANT HEAD     =           0.0000
     HEAD DEP BOUNDS     =     2522924.2500       HEAD DEP BOUNDS     =           0.2879
      STREAM LEAKAGE     =   102316032.0000        STREAM LEAKAGE     =          11.2300
        UZF RECHARGE     =       73223.9531          UZF RECHARGE     =           0.0000
               GW ET     =           0.0000                 GW ET     =           0.0000
     SURFACE LEAKAGE     =           0.0000       SURFACE LEAKAGE     =           0.0000
           AG WELLS      =           0.0000             AG WELLS      =           0.0000

                TOTAL IN =   110493448.0000                  TOTAL IN =          12.7984

          OUT:                                     OUT:
          ----                                     ----
             STORAGE     =    18685962.0000               STORAGE     =           1.4175
       CONSTANT HEAD     =           0.0000         CONSTANT HEAD     =           0.0000
     HEAD DEP BOUNDS     =     2526184.7500       HEAD DEP BOUNDS     =           0.2892
      STREAM LEAKAGE     =    89208432.0000        STREAM LEAKAGE     =          11.0917
        UZF RECHARGE     =           0.0000          UZF RECHARGE     =           0.0000
               GW ET     =           0.0000                 GW ET     =           0.0000
     SURFACE LEAKAGE     =           0.0000       SURFACE LEAKAGE     =           0.0000
           AG WELLS      =       76629.9531             AG WELLS      =           0.0000

               TOTAL OUT =   110497208.0000                 TOTAL OUT =          12.7984

                IN - OUT =       -3760.0000                  IN - OUT =       3.3379E-05

     PERCENT DISCREPANCY =          -0.00         PERCENT DISCREPANCY =           0.00






         TIME SUMMARY AT END OF TIME STEP    9 IN STRESS PERIOD    5
                    SECONDS     MINUTES      HOURS       DAYS        YEARS
                    -----------------------------------------------------------
   TIME STEP LENGTH  87667.      1461.1      24.352      1.0147     2.77799E-03
 STRESS PERIOD TIME 7.89000E+05  13150.      219.17      9.1319     2.50019E-02
         TOTAL TIME 8.76540E+06 1.46090E+05  2434.8      101.45     0.27776    
1
 
 SOLVING FOR HEAD 
                                                   Max.-Head-Change                         Max.-Flux-Residual
  Residual-Control   Outer-Iter.   Inner-Iter.     Column Row Layer    Maximum-Head-Change  Column Row Layer    Maximum-Flux-Residual          L2-NORM 
          0                 1           2             2   13     1      -0.2336058254E-02       2   13    1        -0.1310935777E+00      0.3408620552E+00
          0                 2           2             2   13     1       0.2189210214E-03       2   13    1         0.1262826754E-01      0.3368722317E-01
          0                 3           2             4    7     1      -0.1154084265E-01       4    8    1        -0.6198607001E+00      0.1525278681E+01
          0                 4           2             4    7     1       0.1201643594E-01       4    8    1         0.6633955073E+00      0.1624844510E+01
          0                 5           2             4    7     1      -0.4782790434E-03       4    6    1        -0.2720347046E-01      0.6650480940E-01
          0                 6           1             4    7     1       0.5905168804E-05       4    6    1         0.3452062429E-03      0.8439450057E-03

    ------------------------------------------------
       NWT REQUIRED            6 OUTER ITERATIONS 
       AND A TOTAL OF         11 INNER ITERATIONS.
    ------------------------------------------------

 OUTPUT CONTROL FOR STRESS PERIOD    5   TIME STEP   10
    PRINT BUDGET
    SAVE BUDGET
 UBDSV1 SAVING "         STORAGE" ON UNIT 102 AT TIME STEP 10, STRESS PERIOD 5
 UBDSV2 SAVING "   CONSTANT HEAD" ON UNIT 102 AT TIME STEP 10, STRESS PERIOD 5
 UBDSV1 SAVING "FLOW RIGHT FACE " ON UNIT 102 AT TIME STEP 10, STRESS PERIOD 5
 UBDSV1 SAVING "FLOW FRONT FACE " ON UNIT 102 AT TIME STEP 10, STRESS PERIOD 5

  HEAD DEP BOUNDS   PERIOD    5   STEP    10
 BOUNDARY      1   LAYER   1   ROW    13   COL     1   RATE   -0.289086    
 BOUNDARY      2   LAYER   1   ROW    14   COL     9   RATE    0.287890    



 STREAM LISTING     PERIOD      5   STEP       10

 LAYER ROW COL. STREAM  RCH.  FLOW INTO     FLOW TO   FLOW OUT OF   OVRLND.     DIRECT     STREAM       STREAM     STREAM     STREAM   STREAMBED  STREAMBED
                SEG.NO.  NO.  STRM. RCH.    AQUIFER    STRM. RCH.    RUNOFF     PRECIP       ET          HEAD       DEPTH      WIDTH   CONDCTNC.   GRADIENT

   1    1    1     1     1    1.0500E+01  1.5271E-01   1.0347E+01  0.000E+00  0.000E+00  0.000E+00  1.09396E+03  9.109E-01  8.677E+00  3.905E-02  1.304E+00
   1    2    2     1     2    1.0347E+01  2.3505E-01   1.0112E+01  0.000E+00  0.000E+00  0.000E+00  1.08896E+03  9.059E-01  8.597E+00  6.018E-02  1.302E+00
   1    3    3     1     3    1.0112E+01  1.9904E-01   9.9132E+00  0.000E+00  0.000E+00  0.000E+00  1.08332E+03  9.003E-01  8.505E+00  5.103E-02  1.300E+00
   1    3    4     1     4    9.9132E+00  1.8195E-01   9.7313E+00  0.000E+00  0.000E+00  0.000E+00  1.07830E+03  8.947E-01  8.417E+00  4.672E-02  1.298E+00
   1    4    5     2     1    7.7313E+00  2.8007E-01   7.4512E+00  0.000E+00  0.000E+00  0.000E+00  1.07252E+03  5.907E-01  1.200E+01  7.800E-02  1.197E+00
   1    5    6     2     2    7.4512E+00  2.1474E-01   7.2365E+00  0.000E+00  0.000E+00  0.000E+00  1.06709E+03  5.790E-01  1.200E+01  6.000E-02  1.193E+00
   1    6    6     2     3    7.2365E+00  2.1413E-01   7.0224E+00  0.000E+00  0.000E+00  0.000E+00  1.06236E+03  5.688E-01  1.200E+01  6.000E-02  1.190E+00
   1    7    6     2     4    7.0224E+00  2.1351E-01   6.8088E+00  0.000E+00  0.000E+00  0.000E+00  1.05763E+03  5.585E-01  1.200E+01  6.000E-02  1.186E+00
   1    8    6     2     5    6.8088E+00  2.1289E-01   6.5960E+00  0.000E+00  0.000E+00  0.000E+00  1.05291E+03  5.481E-01  1.200E+01  6.000E-02  1.183E+00
   1    3    5     3     1    2.0000E+00  2.8252E-01   1.7175E+00  0.000E+00  0.000E+00  0.000E+00  1.07555E+03  1.909E+00  9.636E+00  7.227E-02  1.955E+00
   1    3    6     3     2    1.7175E+00  2.4905E-01   1.4684E+00  0.000E+00  0.000E+00  0.000E+00  1.07264E+03  1.727E+00  8.909E+00  6.682E-02  1.864E+00
   1    3    7     3     3    1.4684E+00  1.9718E-01   1.2712E+00  0.000E+00  0.000E+00  0.000E+00  1.06987E+03  1.555E+00  8.218E+00  5.547E-02  1.777E+00
   1    4    8     3     4    1.2712E+00  2.2567E-01   1.0456E+00  0.000E+00  0.000E+00  0.000E+00  1.06682E+03  1.364E+00  7.455E+00  6.709E-02  1.682E+00
   1    5    8     3     5    1.0456E+00  1.5790E-01   8.8768E-01  0.000E+00  0.000E+00  0.000E+00  1.06362E+03  1.164E+00  6.655E+00  4.991E-02  1.582E+00
   1    6    8     3     6    8.8768E-01  5.5980E-02   8.3170E-01  0.000E+00  0.000E+00  0.000E+00  1.06158E+03  1.036E+00  6.145E+00  1.844E-02  1.518E+00
   1    5   10     4     1    1.0000E+01  9.0919E-02   9.9091E+00  0.000E+00  0.000E+00  0.000E+00  1.07836E+03  6.368E-01  1.000E+01  2.500E-02  1.212E+00
   1    5    9     4     2    9.9091E+00  1.8158E-01   9.7275E+00  0.000E+00  0.000E+00  0.000E+00  1.07154E+03  6.315E-01  1.000E+01  5.000E-02  1.211E+00
   1    6    8     4     3    9.7275E+00  1.2689E-01   9.6006E+00  0.000E+00  0.000E+00  0.000E+00  1.06381E+03  6.256E-01  1.000E+01  3.500E-02  1.209E+00
   1    6    8     5     1    1.0432E+01  2.2686E-01   1.0205E+01  0.000E+00  0.000E+00  0.000E+00  1.05868E+03  6.790E-01  1.542E+01  6.166E-02  1.226E+00
   1    7    7     5     2    1.0205E+01  2.7894E-01   9.9265E+00  0.000E+00  0.000E+00  0.000E+00  1.05417E+03  6.732E-01  1.519E+01  7.594E-02  1.224E+00
   1    8    7     5     3    9.9265E+00  1.9221E-01   9.7343E+00  0.000E+00  0.000E+00  0.000E+00  1.04992E+03  6.676E-01  1.497E+01  5.241E-02  1.223E+00
   1    8    6     5     4    9.7343E+00  1.3577E-01   9.5985E+00  0.000E+00  0.000E+00  0.000E+00  1.04691E+03  6.637E-01  1.482E+01  3.706E-02  1.221E+00
   1    9    6     6     1    1.2474E+01  2.2801E-01   1.2246E+01  0.000E+00  0.000E+00  0.000E+00  1.04353E+03  8.002E-01  1.200E+01  6.000E-02  1.267E+00
   1   10    7     6     2    1.2246E+01  2.2748E-01   1.2019E+01  0.000E+00  0.000E+00  0.000E+00  1.03897E+03  7.913E-01  1.200E+01  6.000E-02  1.264E+00
   1   11    7     6     3    1.2019E+01  2.2694E-01   1.1792E+01  0.000E+00  0.000E+00  0.000E+00  1.03442E+03  7.824E-01  1.200E+01  6.000E-02  1.261E+00
   1   12    7     6     4    1.1792E+01  2.2640E-01   1.1566E+01  0.000E+00  0.000E+00  0.000E+00  1.02986E+03  7.734E-01  1.200E+01  6.000E-02  1.258E+00
   1   13    7     6     5    1.1566E+01 -4.1863E-02   1.1608E+01  0.000E+00  0.000E+00  0.000E+00  1.02668E+03  7.697E-01  1.200E+01  2.400E-01 -5.814E-02
   1   14    9     7     1    1.5000E+02  1.3671E+00   1.4863E+02  0.000E+00  0.000E+00  0.000E+00  1.03987E+03  2.288E+00  5.529E+01  5.593E-01  8.148E-01
   1   13    8     7     2    1.4863E+02  1.9167E+00   1.4672E+02  0.000E+00  0.000E+00  0.000E+00  1.03478E+03  2.279E+00  5.526E+01  6.148E-01  1.039E+00
   1   13    7     7     3    1.4672E+02  1.5834E+00   1.4513E+02  0.000E+00  0.000E+00  0.000E+00  1.02969E+03  2.270E+00  5.521E+01  5.584E-01  9.452E-01
   1   13    6     8     1    1.5674E+02  9.4699E-01   1.5579E+02  0.000E+00  0.000E+00  0.000E+00  1.02474E+03  2.860E+00  4.148E+01  4.227E-01  7.469E-01
   1   13    5     8     2    1.5579E+02  2.0218E-01   1.5559E+02  0.000E+00  0.000E+00  0.000E+00  1.01848E+03  2.856E+00  4.142E+01  4.221E-01  1.597E-01
   1   13    4     8     3    1.5559E+02 -2.4453E+00   1.5804E+02  0.000E+00  0.000E+00  0.000E+00  1.01224E+03  2.864E+00  4.153E+01  4.232E+00 -1.926E-01
   1   13    3     8     4    1.5804E+02 -3.7229E+00   1.6176E+02  0.000E+00  0.000E+00  0.000E+00  1.00601E+03  2.885E+00  4.183E+01  4.263E+00 -2.911E-01
   1   13    2     8     5    1.6176E+02 -2.7393E+00   1.6450E+02  0.000E+00  0.000E+00  0.000E+00  9.99782E+02  2.907E+00  4.215E+01  4.295E+00 -2.126E-01
   1   13    1     8     6    1.6450E+02 -2.0979E+00   1.6660E+02  0.000E+00  0.000E+00  0.000E+00  9.94798E+02  2.923E+00  4.238E+01  2.591E+00 -2.699E-01
   1    8    6     9     1    3.7200E+00  0.0000E+00   3.7200E+00  0.000E+00  0.000E+00  0.000E+00  1.08000E+03  1.252E+00  4.000E+00  0.000E+00  1.417E+00
   1    8    5     9     2    3.7200E+00  0.0000E+00   3.7200E+00  0.000E+00  0.000E+00  0.000E+00  1.07950E+03  1.252E+00  4.000E+00  0.000E+00  1.417E+00



 UBDSV3 SAVING "           GW ET" ON UNIT  61 AT TIME STEP 10, STRESS PERIOD 5
 UBDSV3 SAVING "    UZF RECHARGE" ON UNIT  61 AT TIME STEP 10, STRESS PERIOD 5
 UBDSV3 SAVING " SURFACE LEAKAGE" ON UNIT  61 AT TIME STEP 10, STRESS PERIOD 5
 UBDSV3 SAVING "       HORT+DUNN" ON UNIT  61 AT TIME STEP 10, STRESS PERIOD 5
 UBDSV3 SAVING "  STORAGE CHANGE" ON UNIT  61 AT TIME STEP 10, STRESS PERIOD 5


UNSATURATED ZONE PACKAGE VOLUMETRIC BUDGET FOR  TIME STEP    10 STRESS PERIOD    5
  ------------------------------------------------------------------------------



     CUMULATIVE VOLUMES      L**3       RATES FOR THIS TIME STEP      L**3/T
     ------------------                 ------------------------

           IN:                                      IN:
           ---                                      ---
        INFILTRATION =    10766865.0573          INFILTRATION =           4.5676

          OUT:                                     OUT:
          ----                                     ----
              UZF ET =    10609690.0369                UZF ET =           4.5675
        UZF RECHARGE =       73224.0000          UZF RECHARGE =       0.0000E+00

            IN - OUT =       83951.0203              IN - OUT =       6.7651E-05

          STORAGE:                                 STORAGE:
          --------                                 --------
      STORAGE CHANGE =       83950.4132        STORAGE CHANGE =       6.7923E-05

 PERCENT DISCREPANCY IS DIFFERENCE BETWEEN IN-OUT MINUS CHANGE IN STORAGE
 DIVIDED BY THE AVERAGE OF IN AND OUT TIMES 100

 PERCENT DISCREPANCY =           0.00     PERCENT DISCREPANCY =          -0.00






 

            AG WELLS      PERIOD    5   STEP  10
 AG WELL      1   LAYER   1   ROW     6   COL     4   RATE     0.00000    
 AG WELL      2   LAYER   1   ROW     6   COL     5   RATE     0.00000    
 AG WELL      3   LAYER   1   ROW     7   COL     4   RATE     0.00000    
 AG WELL      4   LAYER   1   ROW     7   COL     5   RATE     0.00000    
 AG WELL      5   LAYER   1   ROW     8   COL     4   RATE     0.00000    
 AG WELL      6   LAYER   1   ROW     8   COL     5   RATE     0.00000    
 
 

   DIVERSION SEGMENTS     PERIOD    5   STEP  10
 SEGMENT      9   RATE     3.71999    
 
 

        SW IRRIGATION     PERIOD    5   STEP  10
 SEGMENT      9   ROW     6   COL     4   RATE    0.620011    
 SEGMENT      9   ROW     6   COL     5   RATE    0.620011    
 SEGMENT      9   ROW     7   COL     4   RATE    0.620011    
 SEGMENT      9   ROW     7   COL     5   RATE    0.620011    
 SEGMENT      9   ROW     8   COL     4   RATE    0.620011    
 SEGMENT      9   ROW     8   COL     5   RATE    0.620011    
 
 

        GW IRRIGATION     PERIOD    5   STEP  10
 AG WELL      1   ROW     6   COL     4   RATE     0.00000    
 AG WELL      2   ROW     6   COL     5   RATE     0.00000    
 AG WELL      3   ROW     7   COL     4   RATE     0.00000    
 AG WELL      4   ROW     7   COL     5   RATE     0.00000    
 AG WELL      5   ROW     8   COL     4   RATE     0.00000    
 AG WELL      6   ROW     8   COL     5   RATE     0.00000    
 
1
  VOLUMETRIC BUDGET FOR AGRICULTURAL FIELDS AT  END OF TIME STEP   10, STRESS PERIOD   5
  ------------------------------------------------------------------------------

     CUMULATIVE VOLUMES      L**3       RATES FOR THIS TIME STEP      L**3/T
     ------------------                 ------------------------

           IN:                                      IN:
           ---                                      ---
               AG WELLS  =       76629.9531                 AG WELLS  =           0.0000
      DIVERSION SEGMENTS =     3187198.0000        DIVERSION SEGMENTS =           3.7200
       IRRIGATION PONDS  =           0.0000         IRRIGATION PONDS  =           0.0000
           GW IRRIGATION =           0.0000             GW IRRIGATION =           0.0000
           SW IRRIGATION =           0.0000             SW IRRIGATION =           0.0000
        SYSTEM LOSSES GW =           0.0000          SYSTEM LOSSES GW =           0.0000
        SYSTEM LOSSES SW =           0.0000          SYSTEM LOSSES SW =           0.0000

                TOTAL IN =     3263828.0000                  TOTAL IN =           3.7200

          OUT:                                     OUT:
          ----                                     ----
               AG WELLS  =           0.0000                 AG WELLS  =           0.0000
      DIVERSION SEGMENTS =           0.0000        DIVERSION SEGMENTS =           0.0000
       IRRIGATION PONDS  =           0.0000         IRRIGATION PONDS  =           0.0000
           GW IRRIGATION =       76629.9531             GW IRRIGATION =           0.0000
           SW IRRIGATION =     3187261.5000             SW IRRIGATION =           3.7201
        SYSTEM LOSSES GW =           0.0000          SYSTEM LOSSES GW =           0.0000
        SYSTEM LOSSES SW =           0.0000          SYSTEM LOSSES SW =           0.0000

               TOTAL OUT =     3263891.5000                 TOTAL OUT =           3.7201

                IN - OUT =         -63.5000                  IN - OUT =      -7.4387E-05

     PERCENT DISCREPANCY =          -0.00         PERCENT DISCREPANCY =          -0.00



1
  VOLUMETRIC BUDGET FOR ENTIRE MODEL AT END OF TIME STEP   10, STRESS PERIOD   5
  ------------------------------------------------------------------------------

     CUMULATIVE VOLUMES      L**3       RATES FOR THIS TIME STEP      L**3/T
     ------------------                 ------------------------

           IN:                                      IN:
           ---                                      ---
             STORAGE     =     5688921.5000               STORAGE     =           1.2280
       CONSTANT HEAD     =           0.0000         CONSTANT HEAD     =           0.0000
     HEAD DEP BOUNDS     =     2548162.5000       HEAD DEP BOUNDS     =           0.2879
      STREAM LEAKAGE     =   103300608.0000        STREAM LEAKAGE     =          11.2309
        UZF RECHARGE     =       73223.9531          UZF RECHARGE     =           0.0000
               GW ET     =           0.0000                 GW ET     =           0.0000
     SURFACE LEAKAGE     =           0.0000       SURFACE LEAKAGE     =           0.0000
           AG WELLS      =           0.0000             AG WELLS      =           0.0000

                TOTAL IN =   111610920.0000                  TOTAL IN =          12.7468

          OUT:                                     OUT:
          ----                                     ----
             STORAGE     =    18809604.0000               STORAGE     =           1.4104
       CONSTANT HEAD     =           0.0000         CONSTANT HEAD     =           0.0000
     HEAD DEP BOUNDS     =     2551528.0000       HEAD DEP BOUNDS     =           0.2891
      STREAM LEAKAGE     =    90176912.0000        STREAM LEAKAGE     =          11.0473
        UZF RECHARGE     =           0.0000          UZF RECHARGE     =           0.0000
               GW ET     =           0.0000                 GW ET     =           0.0000
     SURFACE LEAKAGE     =           0.0000       SURFACE LEAKAGE     =           0.0000
           AG WELLS      =       76629.9531             AG WELLS      =           0.0000

               TOTAL OUT =   111614680.0000                 TOTAL OUT =          12.7467

                IN - OUT =       -3760.0000                  IN - OUT =       3.5286E-05

     PERCENT DISCREPANCY =          -0.00         PERCENT DISCREPANCY =           0.00






         TIME SUMMARY AT END OF TIME STEP   10 IN STRESS PERIOD    5
                    SECONDS     MINUTES      HOURS       DAYS        YEARS
                    -----------------------------------------------------------
   TIME STEP LENGTH  87667.      1461.1      24.352      1.0147     2.77799E-03
 STRESS PERIOD TIME 8.76667E+05  14611.      243.52      10.147     2.77799E-02
         TOTAL TIME 8.85306E+06 1.47551E+05  2459.2      102.47     0.28054    
1
 
 SOLVING FOR HEAD 
                                                   Max.-Head-Change                         Max.-Flux-Residual
  Residual-Control   Outer-Iter.   Inner-Iter.     Column Row Layer    Maximum-Head-Change  Column Row Layer    Maximum-Flux-Residual          L2-NORM 
          0                 1           2             2   13     1      -0.2068852262E-02       2   13    1        -0.1160713197E+00      0.3233147749E+00
          0                 2           2             2   13     1       0.1940267784E-03       2   13    1         0.1118956722E-01      0.3200497750E-01
          0                 3           2             4    7     1      -0.1154082132E-01       4    8    1        -0.6198602076E+00      0.1525280305E+01
          0                 4           2             4    7     1       0.1201643557E-01       4    8    1         0.6633952541E+00      0.1624852698E+01
          0                 5           2             4    7     1      -0.4782832949E-03       4    6    1        -0.2722534042E-01      0.6651368860E-01
          0                 6           1             4    7     1       0.5905221675E-05       4    6    1         0.3454836196E-03      0.8440600236E-03

    ------------------------------------------------
       NWT REQUIRED            6 OUTER ITERATIONS 
       AND A TOTAL OF         11 INNER ITERATIONS.
    ------------------------------------------------

 NO OUTPUT CONTROL FOR STRESS PERIOD    5   TIME STEP   11
 
 SOLVING FOR HEAD 
                                                   Max.-Head-Change                         Max.-Flux-Residual
  Residual-Control   Outer-Iter.   Inner-Iter.     Column Row Layer    Maximum-Head-Change  Column Row Layer    Maximum-Flux-Residual          L2-NORM 
          0                 1           2             2   13     1      -0.1821036675E-02       2   13    1        -0.1021402629E+00      0.3083315802E+00
          0                 2           2             2   13     1       0.1709353071E-03       2   13    1         0.9855160988E-02      0.3057108297E-01
          0                 3           2             4    7     1      -0.1154080023E-01       4    8    1        -0.6198597280E+00      0.1525281937E+01
          0                 4           2             4    7     1       0.1201643482E-01       4    8    1         0.6633949820E+00      0.1624860860E+01
          0                 5           2             4    7     1      -0.4782881922E-03       4    6    1        -0.2724707923E-01      0.6652261415E-01
          0                 6           1             4    7     1       0.5905281940E-05       4    6    1         0.3457592893E-03      0.8441715889E-03

    ------------------------------------------------
       NWT REQUIRED            6 OUTER ITERATIONS 
       AND A TOTAL OF         11 INNER ITERATIONS.
    ------------------------------------------------

 NO OUTPUT CONTROL FOR STRESS PERIOD    5   TIME STEP   12
 
 SOLVING FOR HEAD 
                                                   Max.-Head-Change                         Max.-Flux-Residual
  Residual-Control   Outer-Iter.   Inner-Iter.     Column Row Layer    Maximum-Head-Change  Column Row Layer    Maximum-Flux-Residual          L2-NORM 
          0                 1           2             2   13     1      -0.1591282313E-02       2   13    1        -0.8922557637E-01      0.2956646551E+00
          0                 2           2             2   13     1       0.1494938702E-03       2   13    1         0.8616183463E-02      0.2936010640E-01
          0                 3           2             4    7     1      -0.1154078131E-01       4    8    1        -0.6198592767E+00      0.1525283520E+01
          0                 4           2             4    7     1       0.1201637047E-01       4    8    1         0.6633911951E+00      0.1624860285E+01
          0                 5           2             4    7     1      -0.4782239976E-03       4    6    1        -0.2726473440E-01      0.6652188223E-01
          0                 6           1             4    7     1       0.5897676510E-05       4    6    1         0.3455858441E-03      0.8431877798E-03

    ------------------------------------------------
       NWT REQUIRED            6 OUTER ITERATIONS 
       AND A TOTAL OF         11 INNER ITERATIONS.
    ------------------------------------------------

 NO OUTPUT CONTROL FOR STRESS PERIOD    5   TIME STEP   13
 
 SOLVING FOR HEAD 
                                                   Max.-Head-Change                         Max.-Flux-Residual
  Residual-Control   Outer-Iter.   Inner-Iter.     Column Row Layer    Maximum-Head-Change  Column Row Layer    Maximum-Flux-Residual          L2-NORM 
          0                 1           2             3    2     1       0.1455978064E-02       1   13    1        -0.7859844276E-01      0.2850739640E+00
          0                 2           2             3    2     1      -0.1416270347E-03       1   13    1         0.7659962907E-02      0.2834938655E-01
          0                 3           2             4    7     1      -0.1154076430E-01       4    8    1        -0.6198588876E+00      0.1525285244E+01
          0                 4           2             4    7     1       0.1201643576E-01       4    8    1         0.6633945651E+00      0.1624877155E+01
          0                 5           2             4    7     1      -0.4782965683E-03       4    6    1        -0.2728996965E-01      0.6654010090E-01
          0                 6           1             4    7     1       0.5904022657E-05       4    6    1         0.3462286181E-03      0.8442007449E-03

    ------------------------------------------------
       NWT REQUIRED            6 OUTER ITERATIONS 
       AND A TOTAL OF         11 INNER ITERATIONS.
    ------------------------------------------------

 NO OUTPUT CONTROL FOR STRESS PERIOD    5   TIME STEP   14
 
 SOLVING FOR HEAD 
                                                   Max.-Head-Change                         Max.-Flux-Residual
  Residual-Control   Outer-Iter.   Inner-Iter.     Column Row Layer    Maximum-Head-Change  Column Row Layer    Maximum-Flux-Residual          L2-NORM 
          0                 1           2             3    2     1       0.1448713018E-02       3    2    1         0.7554005095E-01      0.2763197555E+00
          0                 2           2             3    2     1      -0.1409203424E-03       3    2    1        -0.7554009865E-02      0.2751460155E-01
          0                 3           2             4    7     1      -0.1154074811E-01       4    8    1        -0.6198585484E+00      0.1525287095E+01
          0                 4           2             4    7     1       0.1201635712E-01       4    8    1         0.6633899914E+00      0.1624874496E+01
          0                 5           2             4    7     1      -0.4782191196E-03       4    6    1        -0.2730652551E-01      0.6653741643E-01
          0                 6           1             4    7     1       0.5901023320E-05       4    6    1         0.3463251583E-03      0.8438946813E-03

    ------------------------------------------------
       NWT REQUIRED            6 OUTER ITERATIONS 
       AND A TOTAL OF         11 INNER ITERATIONS.
    ------------------------------------------------

 NO OUTPUT CONTROL FOR STRESS PERIOD    5   TIME STEP   15
 
 SOLVING FOR HEAD 
                                                   Max.-Head-Change                         Max.-Flux-Residual
  Residual-Control   Outer-Iter.   Inner-Iter.     Column Row Layer    Maximum-Head-Change  Column Row Layer    Maximum-Flux-Residual          L2-NORM 
          0                 1           2             3    2     1       0.1441567069E-02       3    2    1         0.7516336394E-01      0.2691760947E+00
          0                 2           2             3    2     1      -0.1402252356E-03       3    2    1        -0.7516341080E-02      0.2683294574E-01
          0                 3           2             4    7     1      -0.1154073264E-01       4    8    1        -0.6198581642E+00      0.1525289788E+01
          0                 4           2             4    7     1       0.1201635117E-01       4    8    1         0.6633894279E+00      0.1624881621E+01
          0                 5           2             4    7     1      -0.4782173529E-03       4    6    1        -0.2732720786E-01      0.6654519817E-01
          0                 6           1             4    7     1       0.5898957075E-05       4    6    1         0.3464739566E-03      0.8437009886E-03

    ------------------------------------------------
       NWT REQUIRED            6 OUTER ITERATIONS 
       AND A TOTAL OF         11 INNER ITERATIONS.
    ------------------------------------------------

 NO OUTPUT CONTROL FOR STRESS PERIOD    5   TIME STEP   16
 
 SOLVING FOR HEAD 
                                                   Max.-Head-Change                         Max.-Flux-Residual
  Residual-Control   Outer-Iter.   Inner-Iter.     Column Row Layer    Maximum-Head-Change  Column Row Layer    Maximum-Flux-Residual          L2-NORM 
          0                 1           2             3    2     1       0.1434538403E-02       3    2    1         0.7479285210E-01      0.2634363672E+00
          0                 2           2             3    2     1      -0.1395415364E-03       3    2    1        -0.7479289798E-02      0.2628558762E-01
          0                 3           2             4    7     1      -0.1154071783E-01       4    8    1        -0.6198577797E+00      0.1525290303E+01
          0                 4           2             4    7     1       0.1201634270E-01       4    8    1         0.6633887253E+00      0.1624888243E+01
          0                 5           2             4    7     1      -0.4782140420E-03       4    6    1        -0.2734761640E-01      0.6655270434E-01
          0                 6           1             4    7     1       0.5900960367E-05       4    6    1         0.3468576629E-03      0.8440869298E-03

    ------------------------------------------------
       NWT REQUIRED            6 OUTER ITERATIONS 
       AND A TOTAL OF         11 INNER ITERATIONS.
    ------------------------------------------------

 NO OUTPUT CONTROL FOR STRESS PERIOD    5   TIME STEP   17
 
 SOLVING FOR HEAD 
                                                   Max.-Head-Change                         Max.-Flux-Residual
  Residual-Control   Outer-Iter.   Inner-Iter.     Column Row Layer    Maximum-Head-Change  Column Row Layer    Maximum-Flux-Residual          L2-NORM 
          0                 1           2             3    2     1       0.1427540030E-02       3    2    1         0.7442400164E-01      0.2588976918E+00
          0                 2           2             3    2     1      -0.1388607847E-03       3    2    1        -0.7442404688E-02      0.2585238394E-01
          0                 3           2             4    7     1      -0.1154070327E-01       4    8    1        -0.6198574203E+00      0.1525291806E+01
          0                 4           2             4    7     1       0.1201633421E-01       4    8    1         0.6633880245E+00      0.1624894830E+01
          0                 5           2             4    7     1      -0.4782106934E-03       4    6    1        -0.2736786047E-01      0.6656015470E-01
          0                 6           1             4    7     1       0.5897512519E-05       4    6    1         0.3469213648E-03      0.8437013753E-03

    ------------------------------------------------
       NWT REQUIRED            6 OUTER ITERATIONS 
       AND A TOTAL OF         11 INNER ITERATIONS.
    ------------------------------------------------

 NO OUTPUT CONTROL FOR STRESS PERIOD    5   TIME STEP   18
 
 SOLVING FOR HEAD 
                                                   Max.-Head-Change                         Max.-Flux-Residual
  Residual-Control   Outer-Iter.   Inner-Iter.     Column Row Layer    Maximum-Head-Change  Column Row Layer    Maximum-Flux-Residual          L2-NORM 
          0                 1           2             3    2     1       0.1420739862E-02       3    2    1         0.7406556106E-01      0.2553854211E+00
          0                 2           2             3    2     1      -0.1381993125E-03       3    2    1        -0.7406560538E-02      0.2551624176E-01
          0                 3           2             4    7     1      -0.1154068998E-01       4    8    1        -0.6198570496E+00      0.1525293098E+01
          0                 4           2             4    7     1       0.1201632576E-01       4    8    1         0.6633873228E+00      0.1624901338E+01
          0                 5           2             4    7     1      -0.4782073033E-03       4    6    1        -0.2738791658E-01      0.6656753745E-01
          0                 6           1             4    7     1       0.5897470625E-05       4    6    1         0.3471813002E-03      0.8438003742E-03

    ------------------------------------------------
       NWT REQUIRED            6 OUTER ITERATIONS 
       AND A TOTAL OF         11 INNER ITERATIONS.
    ------------------------------------------------

 NO OUTPUT CONTROL FOR STRESS PERIOD    5   TIME STEP   19
 
 SOLVING FOR HEAD 
                                                   Max.-Head-Change                         Max.-Flux-Residual
  Residual-Control   Outer-Iter.   Inner-Iter.     Column Row Layer    Maximum-Head-Change  Column Row Layer    Maximum-Flux-Residual          L2-NORM 
          0                 1           2             3    2     1       0.1414051210E-02       3    2    1         0.7371297769E-01      0.2527378598E+00
          0                 2           2             3    2     1      -0.1375486880E-03       3    2    1        -0.7371302125E-02      0.2526189339E-01
          0                 3           2             4    7     1      -0.1154067752E-01       4    8    1        -0.6198566955E+00      0.1525294652E+01
          0                 4           2             4    7     1       0.1201631516E-01       4    8    1         0.6633865031E+00      0.1624914332E+01
          0                 5           2             4    7     1      -0.4782016866E-03       4    6    1        -0.2740766925E-01      0.6657494430E-01
          0                 6           1             4    7     1       0.5897401175E-05       4    6    1         0.3474373334E-03      0.8439027906E-03

    ------------------------------------------------
       NWT REQUIRED            6 OUTER ITERATIONS 
       AND A TOTAL OF         11 INNER ITERATIONS.
    ------------------------------------------------

 NO OUTPUT CONTROL FOR STRESS PERIOD    5   TIME STEP   20
 
 SOLVING FOR HEAD 
                                                   Max.-Head-Change                         Max.-Flux-Residual
  Residual-Control   Outer-Iter.   Inner-Iter.     Column Row Layer    Maximum-Head-Change  Column Row Layer    Maximum-Flux-Residual          L2-NORM 
          0                 1           2             3    2     1       0.1407386879E-02       3    2    1         0.7336175663E-01      0.2508007207E+00
          0                 2           2             3    2     1      -0.1369004289E-03       3    2    1        -0.7336179948E-02      0.2507516110E-01
          0                 3           2             4    7     1      -0.1154066602E-01       4    8    1        -0.6198563630E+00      0.1525296077E+01
          0                 4           2             4    7     1       0.1201630531E-01       4    8    1         0.6633857247E+00      0.1624920506E+01
          0                 5           2             4    7     1      -0.4781967612E-03       4    6    1        -0.2742729189E-01      0.6658200370E-01
          0                 6           1             4    7     1       0.5898703247E-05       4    6    1         0.3477711703E-03      0.8441977529E-03

    ------------------------------------------------
       NWT REQUIRED            6 OUTER ITERATIONS 
       AND A TOTAL OF         11 INNER ITERATIONS.
    ------------------------------------------------

 NO OUTPUT CONTROL FOR STRESS PERIOD    5   TIME STEP   21
 
 SOLVING FOR HEAD 
                                                   Max.-Head-Change                         Max.-Flux-Residual
  Residual-Control   Outer-Iter.   Inner-Iter.     Column Row Layer    Maximum-Head-Change  Column Row Layer    Maximum-Flux-Residual          L2-NORM 
          0                 1           2             3    2     1       0.1400914124E-02       3    2    1         0.7302063601E-01      0.2494574272E+00
          0                 2           2             3    2     1      -0.1362708052E-03       3    2    1        -0.7302067814E-02      0.2494447328E-01
          0                 3           2             4    7     1      -0.1154065497E-01       4    8    1        -0.6198560734E+00      0.1525297406E+01
          0                 4           2             4    7     1       0.1201629832E-01       4    8    1         0.6633851082E+00      0.1624931812E+01
          0                 5           2             4    7     1      -0.4781947098E-03       4    6    1        -0.2744690153E-01      0.6658965238E-01
          0                 6           1             4    7     1       0.5897314923E-05       4    6    1         0.3479457955E-03      0.8441062648E-03

    ------------------------------------------------
       NWT REQUIRED            6 OUTER ITERATIONS 
       AND A TOTAL OF         11 INNER ITERATIONS.
    ------------------------------------------------

 NO OUTPUT CONTROL FOR STRESS PERIOD    5   TIME STEP   22
 
 SOLVING FOR HEAD 
                                                   Max.-Head-Change                         Max.-Flux-Residual
  Residual-Control   Outer-Iter.   Inner-Iter.     Column Row Layer    Maximum-Head-Change  Column Row Layer    Maximum-Flux-Residual          L2-NORM 
          0                 1           2             3    2     1       0.1394462668E-02       3    2    1         0.7268060894E-01      0.2485932494E+00
          0                 2           2             3    2     1      -0.1356432535E-03       3    2    1        -0.7268065031E-02      0.2485883181E-01
          0                 3           2             4    7     1      -0.1154064517E-01       4    8    1        -0.6198557759E+00      0.1525298780E+01
          0                 4           2             4    7     1       0.1201628777E-01       4    8    1         0.6633842925E+00      0.1624937729E+01
          0                 5           2             4    7     1      -0.4781889739E-03       4    6    1        -0.2746611845E-01      0.6659647624E-01
          0                 6           1             4    7     1       0.5897244353E-05       4    6    1         0.3481948966E-03      0.8442118040E-03

    ------------------------------------------------
       NWT REQUIRED            6 OUTER ITERATIONS 
       AND A TOTAL OF         11 INNER ITERATIONS.
    ------------------------------------------------

 NO OUTPUT CONTROL FOR STRESS PERIOD    5   TIME STEP   23
 
 SOLVING FOR HEAD 
                                                   Max.-Head-Change                         Max.-Flux-Residual
  Residual-Control   Outer-Iter.   Inner-Iter.     Column Row Layer    Maximum-Head-Change  Column Row Layer    Maximum-Flux-Residual          L2-NORM 
          0                 1           2             3    2     1       0.1388114324E-02       3    2    1         0.7234610597E-01      0.2481267156E+00
          0                 2           2             3    2     1      -0.1350257318E-03       3    2    1        -0.7234614667E-02      0.2481085687E-01
          0                 3           2             4    7     1      -0.1154063565E-01       4    8    1        -0.6198554697E+00      0.1525300075E+01
          0                 4           2             4    7     1       0.1201627791E-01       4    8    1         0.6633835160E+00      0.1624949218E+01
          0                 5           2             4    7     1      -0.4781839259E-03       4    6    1        -0.2748520002E-01      0.6660360140E-01
          0                 6           1             4    7     1       0.5897182296E-05       4    6    1         0.3484422318E-03      0.8442995273E-03

    ------------------------------------------------
       NWT REQUIRED            6 OUTER ITERATIONS 
       AND A TOTAL OF         11 INNER ITERATIONS.
    ------------------------------------------------

 NO OUTPUT CONTROL FOR STRESS PERIOD    5   TIME STEP   24
 
 SOLVING FOR HEAD 
                                                   Max.-Head-Change                         Max.-Flux-Residual
  Residual-Control   Outer-Iter.   Inner-Iter.     Column Row Layer    Maximum-Head-Change  Column Row Layer    Maximum-Flux-Residual          L2-NORM 
          0                 1           2             3    2     1       0.1381953016E-02       3    2    1         0.7202136922E-01      0.2479671527E+00
          0                 2           2             3    2     1      -0.1344264033E-03       3    2    1        -0.7202140927E-02      0.2479206457E-01
          0                 3           2             4    7     1      -0.1154062526E-01       4    8    1        -0.6198550940E+00      0.1525301215E+01
          0                 4           2             4    7     1       0.1201626832E-01       4    8    1         0.6633827544E+00      0.1624955118E+01
          0                 5           2             4    7     1      -0.4781802501E-03       4    6    1        -0.2750419317E-01      0.6661059203E-01
          0                 6           1             4    7     1       0.5897136593E-05       4    6    1         0.3486884225E-03      0.8443998358E-03

    ------------------------------------------------
       NWT REQUIRED            6 OUTER ITERATIONS 
       AND A TOTAL OF         11 INNER ITERATIONS.
    ------------------------------------------------

 NO OUTPUT CONTROL FOR STRESS PERIOD    5   TIME STEP   25
 
 SOLVING FOR HEAD 
                                                   Max.-Head-Change                         Max.-Flux-Residual
  Residual-Control   Outer-Iter.   Inner-Iter.     Column Row Layer    Maximum-Head-Change  Column Row Layer    Maximum-Flux-Residual          L2-NORM 
          0                 1           2             3    2     1       0.1375806732E-02       3    2    1         0.7169749027E-01      0.2480544710E+00
          0                 2           2             3    2     1      -0.1338285368E-03       3    2    1        -0.7169752981E-02      0.2479631197E-01
          0                 3           2             4    7     1      -0.1154061695E-01       4    8    1        -0.6198548522E+00      0.1525302399E+01
          0                 4           2             4    7     1       0.1201616601E-01       4    8    1         0.6633819426E+00      0.1624960001E+01
          0                 5           2             4    7     1      -0.4780815022E-03       4    8    1        -0.2713029764E-01      0.6645430193E-01
          0                 6           1             4    7     1       0.5895918309E-05       4    7    1         0.3438889453E-03      0.8423340497E-03

    ------------------------------------------------
       NWT REQUIRED            6 OUTER ITERATIONS 
       AND A TOTAL OF         11 INNER ITERATIONS.
    ------------------------------------------------

 NO OUTPUT CONTROL FOR STRESS PERIOD    5   TIME STEP   26
 
 SOLVING FOR HEAD 
                                                   Max.-Head-Change                         Max.-Flux-Residual
  Residual-Control   Outer-Iter.   Inner-Iter.     Column Row Layer    Maximum-Head-Change  Column Row Layer    Maximum-Flux-Residual          L2-NORM 
          0                 1           2             3    2     1       0.1369758165E-02       3    2    1         0.7137881022E-01      0.2483330331E+00
          0                 2           2             3    2     1      -0.1332401753E-03       3    2    1        -0.7137884900E-02      0.2481897168E-01
          0                 3           2             4    7     1      -0.1154060934E-01       4    8    1        -0.6198545789E+00      0.1525303605E+01
          0                 4           2             4    7     1       0.1201615315E-01       4    8    1         0.6633812478E+00      0.1624958447E+01
          0                 5           2             4    7     1      -0.4780732880E-03       4    8    1        -0.2712983209E-01      0.6645316608E-01
          0                 6           1             4    7     1       0.5897180056E-05       4    7    1         0.3439625325E-03      0.8425090692E-03

    ------------------------------------------------
       NWT REQUIRED            6 OUTER ITERATIONS 
       AND A TOTAL OF         11 INNER ITERATIONS.
    ------------------------------------------------

 NO OUTPUT CONTROL FOR STRESS PERIOD    5   TIME STEP   27
 
 SOLVING FOR HEAD 
                                                   Max.-Head-Change                         Max.-Flux-Residual
  Residual-Control   Outer-Iter.   Inner-Iter.     Column Row Layer    Maximum-Head-Change  Column Row Layer    Maximum-Flux-Residual          L2-NORM 
          0                 1           2             3    2     1       0.1363890558E-02       3    2    1         0.7106961684E-01      0.2487497683E+00
          0                 2           2             3    2     1      -0.1326694159E-03       3    2    1        -0.7106965489E-02      0.2485458622E-01
          0                 3           2             4    7     1      -0.1154060082E-01       4    8    1        -0.6198542375E+00      0.1525305805E+01
          0                 4           2             4    7     1       0.1201613555E-01       4    8    1         0.6633802899E+00      0.1624955955E+01
          0                 5           2             4    7     1      -0.4780613825E-03       4    8    1        -0.2712915712E-01      0.6645107858E-01
          0                 6           1             4    7     1       0.5895670082E-05       4    8    1         0.3438741287E-03      0.8422787269E-03

    ------------------------------------------------
       NWT REQUIRED            6 OUTER ITERATIONS 
       AND A TOTAL OF         11 INNER ITERATIONS.
    ------------------------------------------------

 NO OUTPUT CONTROL FOR STRESS PERIOD    5   TIME STEP   28
 
 SOLVING FOR HEAD 
                                                   Max.-Head-Change                         Max.-Flux-Residual
  Residual-Control   Outer-Iter.   Inner-Iter.     Column Row Layer    Maximum-Head-Change  Column Row Layer    Maximum-Flux-Residual          L2-NORM 
          0                 1           2             4   13     1       0.2970898493E-02       4   13    1         0.1707890396E+00      0.4106901902E+00
          0                 2           2             7   13     1      -0.6833762888E-03       7   13    1        -0.3790088724E-01      0.5465169789E-01
          0                 3           2             4    7     1      -0.1154059287E-01       4    8    1        -0.6198539306E+00      0.1525057716E+01
          0                 4           2             4    7     1       0.1201611654E-01       4    8    1         0.6633792550E+00      0.1624954323E+01
          0                 5           2             4    7     1      -0.4780480214E-03       4    8    1        -0.2712839952E-01      0.6644927626E-01
          0                 6           1             4    7     1       0.5895505194E-05       4    8    1         0.3438645163E-03      0.8422564127E-03

    ------------------------------------------------
       NWT REQUIRED            6 OUTER ITERATIONS 
       AND A TOTAL OF         11 INNER ITERATIONS.
    ------------------------------------------------

 NO OUTPUT CONTROL FOR STRESS PERIOD    5   TIME STEP   29
 
 SOLVING FOR HEAD 
                                                   Max.-Head-Change                         Max.-Flux-Residual
  Residual-Control   Outer-Iter.   Inner-Iter.     Column Row Layer    Maximum-Head-Change  Column Row Layer    Maximum-Flux-Residual          L2-NORM 
          0                 1           2             4   13     1       0.1109011107E-01       4   13    1         0.6375538592E+00      0.1196400800E+01
          0                 2           2             4   13     1      -0.1067606244E-02       4   13    1        -0.6310555143E-01      0.1168545387E+00
          0                 3           2             4    7     1      -0.1154058461E-01       4    8    1        -0.6198536937E+00      0.1524945622E+01
          0                 4           2             4    7     1       0.1201610363E-01       4    8    1         0.6633785628E+00      0.1624952111E+01
          0                 5           2             4    7     1      -0.4780398051E-03       4    8    1        -0.2712793408E-01      0.6644810533E-01
          0                 6           1             4    7     1       0.5898810335E-05       4    8    1         0.3440573150E-03      0.8427268074E-03

    ------------------------------------------------
       NWT REQUIRED            6 OUTER ITERATIONS 
       AND A TOTAL OF         11 INNER ITERATIONS.
    ------------------------------------------------

 NO OUTPUT CONTROL FOR STRESS PERIOD    5   TIME STEP   30



 STREAM LISTING     PERIOD      5   STEP       30

 LAYER ROW COL. STREAM  RCH.  FLOW INTO     FLOW TO   FLOW OUT OF   OVRLND.     DIRECT     STREAM       STREAM     STREAM     STREAM   STREAMBED  STREAMBED
                SEG.NO.  NO.  STRM. RCH.    AQUIFER    STRM. RCH.    RUNOFF     PRECIP       ET          HEAD       DEPTH      WIDTH   CONDCTNC.   GRADIENT

   1    1    1     1     1    3.7125E+01  2.9395E-01   3.6831E+01  0.000E+00  0.000E+00  0.000E+00  1.09436E+03  1.309E+00  1.516E+01  6.821E-02  1.436E+00
   1    2    2     1     2    3.6831E+01  4.5518E-01   3.6376E+01  0.000E+00  0.000E+00  0.000E+00  1.08936E+03  1.306E+00  1.510E+01  1.057E-01  1.435E+00
   1    3    3     1     3    3.6376E+01  3.8814E-01   3.5988E+01  0.000E+00  0.000E+00  0.000E+00  1.08372E+03  1.303E+00  1.503E+01  9.020E-02  1.434E+00
   1    3    4     1     4    3.5988E+01  3.5737E-01   3.5631E+01  0.000E+00  0.000E+00  0.000E+00  1.07871E+03  1.300E+00  1.497E+01  8.311E-02  1.433E+00
   1    4    5     2     1    3.3631E+01  3.4618E-01   3.3284E+01  0.000E+00  0.000E+00  0.000E+00  1.07337E+03  1.438E+00  1.200E+01  7.800E-02  1.479E+00
   1    5    6     2     2    3.3284E+01  2.6582E-01   3.3019E+01  0.000E+00  0.000E+00  0.000E+00  1.06794E+03  1.430E+00  1.200E+01  6.000E-02  1.477E+00
   1    6    6     2     3    3.3019E+01  2.6541E-01   3.2753E+01  0.000E+00  0.000E+00  0.000E+00  1.06322E+03  1.423E+00  1.200E+01  6.000E-02  1.474E+00
   1    7    6     2     4    3.2753E+01  2.6499E-01   3.2488E+01  0.000E+00  0.000E+00  0.000E+00  1.05849E+03  1.417E+00  1.200E+01  6.000E-02  1.472E+00
   1    8    6     2     5    3.2488E+01  2.6458E-01   3.2224E+01  0.000E+00  0.000E+00  0.000E+00  1.05377E+03  1.410E+00  1.200E+01  6.000E-02  1.470E+00
   1    3    5     3     1    2.0000E+00  2.8252E-01   1.7175E+00  0.000E+00  0.000E+00  0.000E+00  1.07555E+03  1.909E+00  9.636E+00  7.227E-02  1.955E+00
   1    3    6     3     2    1.7175E+00  2.4905E-01   1.4684E+00  0.000E+00  0.000E+00  0.000E+00  1.07264E+03  1.727E+00  8.909E+00  6.682E-02  1.864E+00
   1    3    7     3     3    1.4684E+00  1.9718E-01   1.2712E+00  0.000E+00  0.000E+00  0.000E+00  1.06987E+03  1.555E+00  8.218E+00  5.547E-02  1.777E+00
   1    4    8     3     4    1.2712E+00  2.2567E-01   1.0456E+00  0.000E+00  0.000E+00  0.000E+00  1.06682E+03  1.364E+00  7.455E+00  6.709E-02  1.682E+00
   1    5    8     3     5    1.0456E+00  1.5790E-01   8.8768E-01  0.000E+00  0.000E+00  0.000E+00  1.06362E+03  1.164E+00  6.655E+00  4.991E-02  1.582E+00
   1    6    8     3     6    8.8768E-01  5.5980E-02   8.3170E-01  0.000E+00  0.000E+00  0.000E+00  1.06158E+03  1.036E+00  6.145E+00  1.844E-02  1.518E+00
   1    5   10     4     1    1.0000E+01  9.0919E-02   9.9091E+00  0.000E+00  0.000E+00  0.000E+00  1.07836E+03  6.368E-01  1.000E+01  2.500E-02  1.212E+00
   1    5    9     4     2    9.9091E+00  1.8158E-01   9.7275E+00  0.000E+00  0.000E+00  0.000E+00  1.07154E+03  6.315E-01  1.000E+01  5.000E-02  1.211E+00
   1    6    8     4     3    9.7275E+00  1.2689E-01   9.6006E+00  0.000E+00  0.000E+00  0.000E+00  1.06381E+03  6.256E-01  1.000E+01  3.500E-02  1.209E+00
   1    6    8     5     1    1.0432E+01  2.2686E-01   1.0205E+01  0.000E+00  0.000E+00  0.000E+00  1.05868E+03  6.790E-01  1.542E+01  6.166E-02  1.226E+00
   1    7    7     5     2    1.0205E+01  2.7894E-01   9.9265E+00  0.000E+00  0.000E+00  0.000E+00  1.05417E+03  6.732E-01  1.519E+01  7.594E-02  1.224E+00
   1    8    7     5     3    9.9265E+00  1.9221E-01   9.7343E+00  0.000E+00  0.000E+00  0.000E+00  1.04992E+03  6.676E-01  1.497E+01  5.241E-02  1.223E+00
   1    8    6     5     4    9.7343E+00  1.3577E-01   9.5985E+00  0.000E+00  0.000E+00  0.000E+00  1.04691E+03  6.637E-01  1.482E+01  3.706E-02  1.221E+00
   1    9    6     6     1    3.8102E+01  2.7414E-01   3.7828E+01  0.000E+00  0.000E+00  0.000E+00  1.04430E+03  1.569E+00  1.200E+01  6.000E-02  1.523E+00
   1   10    7     6     2    3.7828E+01  2.7373E-01   3.7554E+01  0.000E+00  0.000E+00  0.000E+00  1.03974E+03  1.562E+00  1.200E+01  6.000E-02  1.521E+00
   1   11    7     6     3    3.7554E+01  2.7332E-01   3.7281E+01  0.000E+00  0.000E+00  0.000E+00  1.03519E+03  1.555E+00  1.200E+01  6.000E-02  1.518E+00
   1   12    7     6     4    3.7281E+01  2.7291E-01   3.7008E+01  0.000E+00  0.000E+00  0.000E+00  1.03064E+03  1.548E+00  1.200E+01  6.000E-02  1.516E+00
   1   13    7     6     5    3.7008E+01  1.4539E-02   3.6993E+01  0.000E+00  0.000E+00  0.000E+00  1.02745E+03  1.545E+00  1.200E+01  2.400E-02  2.019E-01
   1   14    9     7     1    1.5000E+02  1.3674E+00   1.4863E+02  0.000E+00  0.000E+00  0.000E+00  1.03987E+03  2.288E+00  5.529E+01  5.593E-01  8.150E-01
   1   13    8     7     2    1.4863E+02  1.9166E+00   1.4672E+02  0.000E+00  0.000E+00  0.000E+00  1.03478E+03  2.279E+00  5.526E+01  6.148E-01  1.039E+00
   1   13    7     7     3    1.4672E+02  1.5863E+00   1.4513E+02  0.000E+00  0.000E+00  0.000E+00  1.02969E+03  2.270E+00  5.521E+01  5.584E-01  9.469E-01
   1   13    6     8     1    1.8212E+02  1.0801E+00   1.8104E+02  0.000E+00  0.000E+00  0.000E+00  1.02490E+03  3.026E+00  4.388E+01  4.471E-01  8.052E-01
   1   13    5     8     2    1.8104E+02  2.9312E-01   1.8075E+02  0.000E+00  0.000E+00  0.000E+00  1.01865E+03  3.022E+00  4.382E+01  4.465E-01  2.188E-01
   1   13    4     8     3    1.8075E+02 -1.7878E+00   1.8254E+02  0.000E+00  0.000E+00  0.000E+00  1.01240E+03  3.026E+00  4.388E+01  4.472E+00 -1.333E-01
   1   13    3     8     4    1.8254E+02 -3.1361E+00   1.8567E+02  0.000E+00  0.000E+00  0.000E+00  1.00617E+03  3.042E+00  4.411E+01  4.495E+00 -2.326E-01
   1   13    2     8     5    1.8567E+02 -2.0932E+00   1.8777E+02  0.000E+00  0.000E+00  0.000E+00  9.99933E+02  3.058E+00  4.434E+01  4.518E+00 -1.544E-01
   1   13    1     8     6    1.8777E+02 -1.7345E+00   1.8950E+02  0.000E+00  0.000E+00  0.000E+00  9.94945E+02  3.070E+00  4.451E+01  2.721E+00 -2.125E-01
   1    8    6     9     1    3.7200E+00  0.0000E+00   3.7200E+00  0.000E+00  0.000E+00  0.000E+00  1.08000E+03  1.252E+00  4.000E+00  0.000E+00  1.417E+00
   1    8    5     9     2    3.7200E+00  0.0000E+00   3.7200E+00  0.000E+00  0.000E+00  0.000E+00  1.07950E+03  1.252E+00  4.000E+00  0.000E+00  1.417E+00





UNSATURATED ZONE PACKAGE VOLUMETRIC BUDGET FOR  TIME STEP    30 STRESS PERIOD    5
  ------------------------------------------------------------------------------



     CUMULATIVE VOLUMES      L**3       RATES FOR THIS TIME STEP      L**3/T
     ------------------                 ------------------------

           IN:                                      IN:
           ---                                      ---
        INFILTRATION =    18775378.0686          INFILTRATION =           4.5676

          OUT:                                     OUT:
          ----                                     ----
              UZF ET =    18618039.8178                UZF ET =           4.5675
        UZF RECHARGE =       73224.0000          UZF RECHARGE =       0.0000E+00

            IN - OUT =       84114.2508              IN - OUT =       1.0949E-04

          STORAGE:                                 STORAGE:
          --------                                 --------
      STORAGE CHANGE =       84113.6595        STORAGE CHANGE =       1.0970E-04

 PERCENT DISCREPANCY IS DIFFERENCE BETWEEN IN-OUT MINUS CHANGE IN STORAGE
 DIVIDED BY THE AVERAGE OF IN AND OUT TIMES 100

 PERCENT DISCREPANCY =           0.00     PERCENT DISCREPANCY =           0.00






1
  VOLUMETRIC BUDGET FOR AGRICULTURAL FIELDS AT  END OF TIME STEP   30, STRESS PERIOD   5
  ------------------------------------------------------------------------------

     CUMULATIVE VOLUMES      L**3       RATES FOR THIS TIME STEP      L**3/T
     ------------------                 ------------------------

           IN:                                      IN:
           ---                                      ---
               AG WELLS  =       76631.2578                 AG WELLS  =           0.0000
      DIVERSION SEGMENTS =     9709632.0000        DIVERSION SEGMENTS =           3.7200
       IRRIGATION PONDS  =           0.0000         IRRIGATION PONDS  =           0.0000
           GW IRRIGATION =           0.0000             GW IRRIGATION =           0.0000
           SW IRRIGATION =           0.0000             SW IRRIGATION =           0.0000
        SYSTEM LOSSES GW =           0.0000          SYSTEM LOSSES GW =           0.0000
        SYSTEM LOSSES SW =           0.0000          SYSTEM LOSSES SW =           0.0000

                TOTAL IN =     9786263.0000                  TOTAL IN =           3.7200

          OUT:                                     OUT:
          ----                                     ----
               AG WELLS  =           0.0000                 AG WELLS  =           0.0000
      DIVERSION SEGMENTS =           0.0000        DIVERSION SEGMENTS =           0.0000
       IRRIGATION PONDS  =           0.0000         IRRIGATION PONDS  =           0.0000
           GW IRRIGATION =       76631.2578             GW IRRIGATION =           0.0000
           SW IRRIGATION =     9709825.0000             SW IRRIGATION =           3.7201
        SYSTEM LOSSES GW =           0.0000          SYSTEM LOSSES GW =           0.0000
        SYSTEM LOSSES SW =           0.0000          SYSTEM LOSSES SW =           0.0000

               TOTAL OUT =     9786456.0000                 TOTAL OUT =           3.7201

                IN - OUT =        -193.0000                  IN - OUT =      -7.4387E-05

     PERCENT DISCREPANCY =          -0.00         PERCENT DISCREPANCY =          -0.00



1
  VOLUMETRIC BUDGET FOR ENTIRE MODEL AT END OF TIME STEP   30, STRESS PERIOD   5
  ------------------------------------------------------------------------------

     CUMULATIVE VOLUMES      L**3       RATES FOR THIS TIME STEP      L**3/T
     ------------------                 ------------------------

           IN:                                      IN:
           ---                                      ---
             STORAGE     =     7195578.5000               STORAGE     =           0.4147
       CONSTANT HEAD     =           0.0000         CONSTANT HEAD     =           0.0000
     HEAD DEP BOUNDS     =     3052947.5000       HEAD DEP BOUNDS     =           0.2879
      STREAM LEAKAGE     =   123163664.0000        STREAM LEAKAGE     =          12.6552
        UZF RECHARGE     =       73223.9531          UZF RECHARGE     =           0.0000
               GW ET     =           0.0000                 GW ET     =           0.0000
     SURFACE LEAKAGE     =           0.0000       SURFACE LEAKAGE     =           0.0000
           AG WELLS      =           0.0000             AG WELLS      =           0.0000

                TOTAL IN =   133485416.0000                  TOTAL IN =          13.3578

          OUT:                                     OUT:
          ----                                     ----
             STORAGE     =    21510924.0000               STORAGE     =           4.3180
       CONSTANT HEAD     =           0.0000         CONSTANT HEAD     =           0.0000
     HEAD DEP BOUNDS     =     3057160.5000       HEAD DEP BOUNDS     =           0.2881
      STREAM LEAKAGE     =   108844400.0000        STREAM LEAKAGE     =           8.7516
        UZF RECHARGE     =           0.0000          UZF RECHARGE     =           0.0000
               GW ET     =           0.0000                 GW ET     =           0.0000
     SURFACE LEAKAGE     =           0.0000       SURFACE LEAKAGE     =           0.0000
           AG WELLS      =       76631.2578             AG WELLS      =           0.0000

               TOTAL OUT =   133489112.0000                 TOTAL OUT =          13.3577

                IN - OUT =       -3696.0000                  IN - OUT =       3.4332E-05

     PERCENT DISCREPANCY =          -0.00         PERCENT DISCREPANCY =           0.00






         TIME SUMMARY AT END OF TIME STEP   30 IN STRESS PERIOD    5
                    SECONDS     MINUTES      HOURS       DAYS        YEARS
                    -----------------------------------------------------------
   TIME STEP LENGTH  87667.      1461.1      24.352      1.0147     2.77799E-03
 STRESS PERIOD TIME 2.63000E+06  43833.      730.56      30.440     8.33397E-02
         TOTAL TIME 1.06064E+07 1.76773E+05  2946.2      122.76     0.33610    
1
1
                            STRESS PERIOD NO.    6, LENGTH =   2630000.    
                            -----------------------------------------------

                              NUMBER OF TIME STEPS =    30

                               MULTIPLIER FOR DELT =     1.000

                            INITIAL TIME STEP SIZE =   87666.66    

 REUSING NON-PARAMETER GHB CELLS FROM LAST STRESS PERIOD

      2 GHB CELLS

 REUSING STREAM SEGMENT DATA FROM LAST STRESS PERIOD



            AREAL INFILTRATION RATE
 READING ON UNIT   19 WITH FORMAT: (FREE)              

            1           2           3           4           5           6           7           8           9          10
 ........................................................................................................................
   1   1.0000E-10  2.0000E-10   0.000       0.000       0.000       0.000       0.000       0.000       0.000       0.000    
   2   2.0000E-10  1.0000E-10  2.0000E-10   0.000       0.000      8.0000E-10  8.0000E-10  5.0000E-10   0.000       0.000    
   3    0.000      5.0000E-10  1.0000E-10  1.0000E-10  8.0000E-10  8.0000E-10  5.0000E-10  5.0000E-10   0.000       0.000    
   4   8.0000E-10  5.0000E-10  1.0000E-10  1.0000E-10  1.0000E-10  1.0000E-10  1.0000E-10  1.0000E-10  2.0000E-10   0.000    
   5   8.0000E-10  5.0000E-10  1.0000E-10  1.0000E-10  1.0000E-10  1.0000E-10  1.0000E-10  1.0000E-10  1.0000E-10  1.0000E-10
   6   8.0000E-10  5.0000E-10  5.0000E-10  2.0000E-10  2.0000E-10  1.0000E-10  1.0000E-10  1.0000E-10  1.0000E-10  5.0000E-10
   7   8.0000E-10  5.0000E-10  5.0000E-10  2.0000E-10  2.0000E-10  1.0000E-10  1.0000E-10  2.0000E-10  2.0000E-10   0.000    
   8    0.000      5.0000E-10  5.0000E-10  2.0000E-10  2.0000E-10  1.0000E-10  1.0000E-10  2.0000E-10  5.0000E-10   0.000    
   9    0.000      5.0000E-10  5.0000E-10  2.0000E-10  2.0000E-10  1.0000E-10  1.0000E-10  2.0000E-10  5.0000E-10   0.000    
  10    0.000      5.0000E-10  5.0000E-10  2.0000E-10  2.0000E-10  1.0000E-10  1.0000E-10  2.0000E-10  5.0000E-10  8.0000E-10
  11    0.000      1.0000E-10  1.0000E-10  1.0000E-10  1.0000E-10  1.0000E-10  1.0000E-10  2.0000E-10  5.0000E-10   0.000    
  12   1.0000E-10  1.0000E-10  1.0000E-10  1.0000E-10  1.0000E-10  1.0000E-10  1.0000E-10  1.0000E-10  2.0000E-10   0.000    
  13   1.0000E-10  1.0000E-10  2.0000E-10  2.0000E-10  2.0000E-10  2.0000E-10  2.0000E-10  1.0000E-10  1.0000E-10   0.000    
  14    0.000      2.0000E-10  5.0000E-10  5.0000E-10  5.0000E-10  5.0000E-10  5.0000E-10  2.0000E-10  1.0000E-10   0.000    
  15    0.000       0.000      8.0000E-10  8.0000E-10  8.0000E-10  8.0000E-10   0.000       0.000       0.000       0.000    

                  ET RATE =  5.000000E-08

 USING ET EXTINCTION DEPTH FROM PREVIOUS STRESS PERIOD. CURRENT PERIOD IS:       6

 USING EXTINCTION WATER CONTENT FROM PREVIOUS STRESS PERIOD. CURRENT PERIOD IS:       6

 USING AIR ENTRY PRESSURE FROM PREVIOUS STRESS PERIOD. CURRENT PERIOD IS:       6

 USING ROOT PRESSURE HEAD FROM PREVIOUS STRESS PERIOD. CURRENT PERIOD IS:       6

 USING ROOT ACTIVITY FROM PREVIOUS STRESS PERIOD. CURRENT PERIOD IS:       6

 PROCESSING AG STRESS PERIOD DATA

 READING AG STRESS PERIOD DATA

 READING IRRIGATION SEGMENT

 READING IRRIGATION WELL

 READING SUPPLEMENTAL WELL

 NO IRRPOND OR REUSING IRRPOND DATA FROM LAST STRESS PERIOD

 END PROCESSING AG STRESS PERIOD DATA OPTIONS
 
 SOLVING FOR HEAD 
                                                   Max.-Head-Change                         Max.-Flux-Residual
  Residual-Control   Outer-Iter.   Inner-Iter.     Column Row Layer    Maximum-Head-Change  Column Row Layer    Maximum-Flux-Residual          L2-NORM 
          0                 1           2             4   13     1       0.7103422191E-02       4   13    1         0.4078164092E+00      0.8746421946E+00
          0                 2           2             4    7     1      -0.1168255786E-01       5    6    1        -0.6291082577E+00      0.1554122171E+01
          0                 3           2             4    7     1       0.1210877248E-01       5    6    1         0.6686141205E+00      0.1637616592E+01
          0                 4           2             4    7     1      -0.4818274162E-03       5    6    1        -0.2734671527E-01      0.6697927086E-01
          0                 5           1             4    7     1       0.5946587598E-05       5    6    1         0.3468849886E-03      0.8496106305E-03

    ------------------------------------------------
       NWT REQUIRED            5 OUTER ITERATIONS 
       AND A TOTAL OF          9 INNER ITERATIONS.
    ------------------------------------------------

 NO OUTPUT CONTROL FOR STRESS PERIOD    6   TIME STEP    1
 
 SOLVING FOR HEAD 
                                                   Max.-Head-Change                         Max.-Flux-Residual
  Residual-Control   Outer-Iter.   Inner-Iter.     Column Row Layer    Maximum-Head-Change  Column Row Layer    Maximum-Flux-Residual          L2-NORM 
          0                 1           2             4   13     1       0.9646469769E-02       4   13    1         0.5541310336E+00      0.1091759969E+01
          0                 2           2             4   13     1      -0.9285564997E-03       4   13    1        -0.5484343663E-01      0.1067536374E+00
          0                 3           2             4    7     1      -0.2295161925E-01       4    8    1        -0.1232691325E+01      0.3033360608E+01
          0                 4           2             4    7     1       0.2389430899E-01       4    8    1         0.1319132565E+01      0.3231138433E+01
          0                 5           2             4    7     1      -0.9511320160E-03       4    6    1        -0.5447162094E-01      0.1324005694E+00
          0                 6           1             4    7     1       0.1174337474E-04       4    6    1         0.6912978802E-03      0.1680205827E-02

    ------------------------------------------------
       NWT REQUIRED            6 OUTER ITERATIONS 
       AND A TOTAL OF         11 INNER ITERATIONS.
    ------------------------------------------------

 NO OUTPUT CONTROL FOR STRESS PERIOD    6   TIME STEP    2
 
 SOLVING FOR HEAD 
                                                   Max.-Head-Change                         Max.-Flux-Residual
  Residual-Control   Outer-Iter.   Inner-Iter.     Column Row Layer    Maximum-Head-Change  Column Row Layer    Maximum-Flux-Residual          L2-NORM 
          0                 1           2             4   13     1       0.9019806013E-02       4   13    1         0.5179338216E+00      0.1046225754E+01
          0                 2           2             4   13     1      -0.8682043266E-03       4   13    1        -0.5125892400E-01      0.1023642234E+00
          0                 3           2             4    7     1      -0.2298967124E-01       4    8    1        -0.1234735045E+01      0.3038366409E+01
          0                 4           2             4    7     1       0.2393392815E-01       4    8    1         0.1321319605E+01      0.3236501932E+01
          0                 5           2             4    7     1      -0.9527130161E-03       4    6    1        -0.5457923921E-01      0.1326272568E+00
          0                 6           1             4    7     1       0.1176288410E-04       4    6    1         0.6926675346E-03      0.1683093613E-02

    ------------------------------------------------
       NWT REQUIRED            6 OUTER ITERATIONS 
       AND A TOTAL OF         11 INNER ITERATIONS.
    ------------------------------------------------

 NO OUTPUT CONTROL FOR STRESS PERIOD    6   TIME STEP    3
 
 SOLVING FOR HEAD 
                                                   Max.-Head-Change                         Max.-Flux-Residual
  Residual-Control   Outer-Iter.   Inner-Iter.     Column Row Layer    Maximum-Head-Change  Column Row Layer    Maximum-Flux-Residual          L2-NORM 
          0                 1           2             4   13     1       0.8455753267E-02       4   13    1         0.4853635461E+00      0.1005093198E+01
          0                 2           2             4   13     1      -0.8138646518E-03       4   13    1        -0.4803260620E-01      0.9839814405E-01
          0                 3           2             4    7     1      -0.2299776349E-01       4    8    1        -0.1235169789E+01      0.3039413973E+01
          0                 4           2             4    7     1       0.2394236261E-01       4    8    1         0.1321785036E+01      0.3237648649E+01
          0                 5           2             4    7     1      -0.9530527974E-03       4    6    1        -0.5461629105E-01      0.1326813846E+00
          0                 6           1             4    7     1       0.1176707640E-04       4    6    1         0.6931423222E-03      0.1683784647E-02

    ------------------------------------------------
       NWT REQUIRED            6 OUTER ITERATIONS 
       AND A TOTAL OF         11 INNER ITERATIONS.
    ------------------------------------------------

 NO OUTPUT CONTROL FOR STRESS PERIOD    6   TIME STEP    4
 
 SOLVING FOR HEAD 
                                                   Max.-Head-Change                         Max.-Flux-Residual
  Residual-Control   Outer-Iter.   Inner-Iter.     Column Row Layer    Maximum-Head-Change  Column Row Layer    Maximum-Flux-Residual          L2-NORM 
          0                 1           2             4   13     1       0.7947375292E-02       4   13    1         0.4560175626E+00      0.9678998443E+00
          0                 2           2             4   13     1      -0.7649248960E-03       4   13    1        -0.4512779719E-01      0.9481813804E-01
          0                 3           2             4    7     1      -0.2300522249E-01       4    8    1        -0.1235570461E+01      0.3040379445E+01
          0                 4           2             4    7     1       0.2395013850E-01       4    8    1         0.1322214106E+01      0.3238706291E+01
          0                 5           2             4    7     1      -0.9533663353E-03       4    6    1        -0.5465171244E-01      0.1327317945E+00
          0                 6           1             4    7     1       0.1177094543E-04       4    6    1         0.6935963743E-03      0.1684429181E-02

    ------------------------------------------------
       NWT REQUIRED            6 OUTER ITERATIONS 
       AND A TOTAL OF         11 INNER ITERATIONS.
    ------------------------------------------------

 NO OUTPUT CONTROL FOR STRESS PERIOD    6   TIME STEP    5
 
 SOLVING FOR HEAD 
                                                   Max.-Head-Change                         Max.-Flux-Residual
  Residual-Control   Outer-Iter.   Inner-Iter.     Column Row Layer    Maximum-Head-Change  Column Row Layer    Maximum-Flux-Residual          L2-NORM 
          0                 1           2             4   13     1       0.7489192557E-02       4   13    1         0.4295779370E+00      0.9342402938E+00
          0                 2           2             4   13     1      -0.7209648913E-03       4   13    1        -0.4251951010E-01      0.9158233560E-01
          0                 3           2             4    7     1      -0.2301211705E-01       4    8    1        -0.1235940809E+01      0.3041271906E+01
          0                 4           2             4    7     1       0.2395732747E-01       4    8    1         0.1322610775E+01      0.3239684547E+01
          0                 5           2             4    7     1      -0.9536564870E-03       4    6    1        -0.5468569650E-01      0.1327789234E+00
          0                 6           1             4    7     1       0.1177452613E-04       4    6    1         0.6940321750E-03      0.1685036659E-02

    ------------------------------------------------
       NWT REQUIRED            6 OUTER ITERATIONS 
       AND A TOTAL OF         11 INNER ITERATIONS.
    ------------------------------------------------

 NO OUTPUT CONTROL FOR STRESS PERIOD    6   TIME STEP    6
 
 SOLVING FOR HEAD 
                                                   Max.-Head-Change                         Max.-Flux-Residual
  Residual-Control   Outer-Iter.   Inner-Iter.     Column Row Layer    Maximum-Head-Change  Column Row Layer    Maximum-Flux-Residual          L2-NORM 
          0                 1           2             2   13     1       0.7134204577E-02       4   13    1         0.4057266941E+00      0.9037576845E+00
          0                 2           2             4   13     1      -0.6809673957E-03       4   13    1        -0.4014700674E-01      0.8864417664E-01
          0                 3           2             4    7     1      -0.2301851161E-01       4    8    1        -0.1236284296E+01      0.3042099687E+01
          0                 4           2             4    7     1       0.2396399651E-01       4    8    1         0.1322978740E+01      0.3240592472E+01
          0                 5           2             4    7     1      -0.9539259198E-03       4    6    1        -0.5471839327E-01      0.1328231361E+00
          0                 6           1             4    7     1       0.1177785076E-04       4    6    1         0.6944516335E-03      0.1685605538E-02

    ------------------------------------------------
       NWT REQUIRED            6 OUTER ITERATIONS 
       AND A TOTAL OF         11 INNER ITERATIONS.
    ------------------------------------------------

 NO OUTPUT CONTROL FOR STRESS PERIOD    6   TIME STEP    7
 
 SOLVING FOR HEAD 
                                                   Max.-Head-Change                         Max.-Flux-Residual
  Residual-Control   Outer-Iter.   Inner-Iter.     Column Row Layer    Maximum-Head-Change  Column Row Layer    Maximum-Flux-Residual          L2-NORM 
          0                 1           2             2   13     1       0.6812576949E-02       4   13    1         0.3842283266E+00      0.8761364871E+00
          0                 2           2             4   13     1      -0.6450537185E-03       4   13    1        -0.3801755740E-01      0.8598736809E-01
          0                 3           2             4    7     1      -0.2302445326E-01       4    8    1        -0.1236603546E+01      0.3042869177E+01
          0                 4           2             4    7     1       0.2397019636E-01       4    8    1         0.1323320810E+01      0.3241436955E+01
          0                 5           2             4    7     1      -0.9541766558E-03       4    6    1        -0.5474993230E-01      0.1328647152E+00
          0                 6           1             4    7     1       0.1178094442E-04       4    6    1         0.6948563728E-03      0.1686140526E-02

    ------------------------------------------------
       NWT REQUIRED            6 OUTER ITERATIONS 
       AND A TOTAL OF         11 INNER ITERATIONS.
    ------------------------------------------------

 NO OUTPUT CONTROL FOR STRESS PERIOD    6   TIME STEP    8
 
 SOLVING FOR HEAD 
                                                   Max.-Head-Change                         Max.-Flux-Residual
  Residual-Control   Outer-Iter.   Inner-Iter.     Column Row Layer    Maximum-Head-Change  Column Row Layer    Maximum-Flux-Residual          L2-NORM 
          0                 1           2             2   13     1       0.6515181278E-02       2   13    1         0.3670734989E+00      0.8510762153E+00
          0                 2           2             4   13     1      -0.6126471425E-03       4   13    1        -0.3609673856E-01      0.8357793087E-01
          0                 3           2             4    7     1      -0.2302999682E-01       4    8    1        -0.1236901304E+01      0.3043587129E+01
          0                 4           2             4    7     1       0.2397598038E-01       4    8    1         0.1323639917E+01      0.3242225176E+01
          0                 5           2             4    7     1      -0.9544108153E-03       4    6    1        -0.5478041625E-01      0.1329039492E+00
          0                 6           1             4    7     1       0.1178383376E-04       4    6    1         0.6952477065E-03      0.1686645506E-02

    ------------------------------------------------
       NWT REQUIRED            6 OUTER ITERATIONS 
       AND A TOTAL OF         11 INNER ITERATIONS.
    ------------------------------------------------

 NO OUTPUT CONTROL FOR STRESS PERIOD    6   TIME STEP    9
 
 SOLVING FOR HEAD 
                                                   Max.-Head-Change                         Max.-Flux-Residual
  Residual-Control   Outer-Iter.   Inner-Iter.     Column Row Layer    Maximum-Head-Change  Column Row Layer    Maximum-Flux-Residual          L2-NORM 
          0                 1           2             2   13     1       0.6240215692E-02       2   13    1         0.3515617012E+00      0.8283184680E+00
          0                 2           2             4   13     1      -0.5833757397E-03       4   13    1        -0.3436237018E-01      0.8139007257E-01
          0                 3           2             4    7     1      -0.2303517593E-01       4    8    1        -0.1237179528E+01      0.3044258082E+01
          0                 4           2             4    7     1       0.2398138544E-01       4    8    1         0.1323938106E+01      0.3242962146E+01
          0                 5           2             4    7     1      -0.9546298725E-03       4    6    1        -0.5480995837E-01      0.1329410568E+00
          0                 6           1             4    7     1       0.1178653715E-04       4    6    1         0.6956270463E-03      0.1687126063E-02

    ------------------------------------------------
       NWT REQUIRED            6 OUTER ITERATIONS 
       AND A TOTAL OF         11 INNER ITERATIONS.
    ------------------------------------------------

 NO OUTPUT CONTROL FOR STRESS PERIOD    6   TIME STEP   10
 
 SOLVING FOR HEAD 
                                                   Max.-Head-Change                         Max.-Flux-Residual
  Residual-Control   Outer-Iter.   Inner-Iter.     Column Row Layer    Maximum-Head-Change  Column Row Layer    Maximum-Flux-Residual          L2-NORM 
          0                 1           2             2   13     1       0.5985992275E-02       2   13    1         0.3372209290E+00      0.8076322583E+00
          0                 2           2             4   13     1      -0.5569740436E-03       4   13    1        -0.3279863203E-01      0.7940341079E-01
          0                 3           2             4    7     1      -0.2304002837E-01       4    8    1        -0.1237440155E+01      0.3044886737E+01
          0                 4           2             4    7     1       0.2398645081E-01       4    8    1         0.1324217540E+01      0.3243653152E+01
          0                 5           2             4    7     1      -0.9548353859E-03       4    6    1        -0.5483862917E-01      0.1329762598E+00
          0                 6           1             4    7     1       0.1178907319E-04       4    6    1         0.6959953475E-03      0.1687594299E-02

    ------------------------------------------------
       NWT REQUIRED            6 OUTER ITERATIONS 
       AND A TOTAL OF         11 INNER ITERATIONS.
    ------------------------------------------------

 NO OUTPUT CONTROL FOR STRESS PERIOD    6   TIME STEP   11
 
 SOLVING FOR HEAD 
                                                   Max.-Head-Change                         Max.-Flux-Residual
  Residual-Control   Outer-Iter.   Inner-Iter.     Column Row Layer    Maximum-Head-Change  Column Row Layer    Maximum-Flux-Residual          L2-NORM 
          0                 1           2             2   13     1       0.5750899841E-02       2   13    1         0.3239601743E+00      0.7888002250E+00
          0                 2           2             2   13     1      -0.5347172024E-03       4   13    1        -0.3138462131E-01      0.7759209922E-01
          0                 3           2             4    7     1      -0.2304458307E-01       4    8    1        -0.1237684786E+01      0.3045477209E+01
          0                 4           2             4    7     1       0.2399120653E-01       4    8    1         0.1324479879E+01      0.3244302276E+01
          0                 5           2             4    7     1      -0.9550285580E-03       4    6    1        -0.5486652556E-01      0.1330096963E+00
          0                 6           1             4    7     1       0.1179145688E-04       4    6    1         0.6963537598E-03      0.1688013306E-02

    ------------------------------------------------
       NWT REQUIRED            6 OUTER ITERATIONS 
       AND A TOTAL OF         11 INNER ITERATIONS.
    ------------------------------------------------

 NO OUTPUT CONTROL FOR STRESS PERIOD    6   TIME STEP   12
 
 SOLVING FOR HEAD 
                                                   Max.-Head-Change                         Max.-Flux-Residual
  Residual-Control   Outer-Iter.   Inner-Iter.     Column Row Layer    Maximum-Head-Change  Column Row Layer    Maximum-Flux-Residual          L2-NORM 
          0                 1           2             2   13     1       0.5533529757E-02       2   13    1         0.3116998888E+00      0.7716419307E+00
          0                 2           2             2   13     1      -0.5145699149E-03       4   13    1        -0.3010824055E-01      0.7594458189E-01
          0                 3           2             4    7     1      -0.2304886444E-01       4    8    1        -0.1237914733E+01      0.3046032271E+01
          0                 4           2             4    7     1       0.2399567803E-01       4    8    1         0.1324726528E+01      0.3244912955E+01
          0                 5           2             4    7     1      -0.9552103996E-03       4    6    1        -0.5489370139E-01      0.1330415428E+00
          0                 6           1             4    7     1       0.1179370056E-04       4    6    1         0.6967030472E-03      0.1688424513E-02

    ------------------------------------------------
       NWT REQUIRED            6 OUTER ITERATIONS 
       AND A TOTAL OF         11 INNER ITERATIONS.
    ------------------------------------------------

 NO OUTPUT CONTROL FOR STRESS PERIOD    6   TIME STEP   13
 
 SOLVING FOR HEAD 
                                                   Max.-Head-Change                         Max.-Flux-Residual
  Residual-Control   Outer-Iter.   Inner-Iter.     Column Row Layer    Maximum-Head-Change  Column Row Layer    Maximum-Flux-Residual          L2-NORM 
          0                 1           2             2   13     1       0.5332600600E-02       2   13    1         0.3003677101E+00      0.7559831617E+00
          0                 2           2             2   13     1      -0.4959238817E-03       4   13    1        -0.2895514403E-01      0.7444172968E-01
          0                 3           2             4    7     1      -0.2305289694E-01       4    8    1        -0.1238131312E+01      0.3046555011E+01
          0                 4           2             4    7     1       0.2399989072E-01       4    8    1         0.1324958890E+01      0.3245488599E+01
          0                 5           2             4    7     1      -0.9553819224E-03       4    6    1        -0.5492021112E-01      0.1330719407E+00
          0                 6           1             4    7     1       0.1179581721E-04       4    6    1         0.6970438826E-03      0.1688832181E-02

    ------------------------------------------------
       NWT REQUIRED            6 OUTER ITERATIONS 
       AND A TOTAL OF         11 INNER ITERATIONS.
    ------------------------------------------------

 NO OUTPUT CONTROL FOR STRESS PERIOD    6   TIME STEP   14
 
 SOLVING FOR HEAD 
                                                   Max.-Head-Change                         Max.-Flux-Residual
  Residual-Control   Outer-Iter.   Inner-Iter.     Column Row Layer    Maximum-Head-Change  Column Row Layer    Maximum-Flux-Residual          L2-NORM 
          0                 1           2             2   13     1       0.5146725713E-02       2   13    1         0.2898853407E+00      0.7416755088E+00
          0                 2           2             2   13     1      -0.4786319738E-03       4   13    1        -0.2791096458E-01      0.7306634181E-01
          0                 3           2             4    7     1      -0.2305670542E-01       4    8    1        -0.1238335955E+01      0.3047049766E+01
          0                 4           2             4    7     1       0.2400387221E-01       4    8    1         0.1325178495E+01      0.3246033030E+01
          0                 5           2             4    7     1      -0.9555442269E-03       4    6    1        -0.5494612938E-01      0.1331010256E+00
          0                 6           1             4    7     1       0.1179781983E-04       4    6    1         0.6973771747E-03      0.1689201415E-02

    ------------------------------------------------
       NWT REQUIRED            6 OUTER ITERATIONS 
       AND A TOTAL OF         11 INNER ITERATIONS.
    ------------------------------------------------

 NO OUTPUT CONTROL FOR STRESS PERIOD    6   TIME STEP   15
 
 SOLVING FOR HEAD 
                                                   Max.-Head-Change                         Max.-Flux-Residual
  Residual-Control   Outer-Iter.   Inner-Iter.     Column Row Layer    Maximum-Head-Change  Column Row Layer    Maximum-Flux-Residual          L2-NORM 
          0                 1           2             2   13     1       0.4974905274E-02       2   13    1         0.2801962900E+00      0.7285795604E+00
          0                 2           2             2   13     1      -0.4626631662E-03       4   13    1        -0.2696791746E-01      0.7180858385E-01
          0                 3           2             4    7     1      -0.2306030473E-01       4    8    1        -0.1238529259E+01      0.3047517045E+01
          0                 4           2             4    7     1       0.2400763430E-01       4    8    1         0.1325385981E+01      0.3246547740E+01
          0                 5           2             4    7     1      -0.9556977828E-03       4    6    1        -0.5497147870E-01      0.1331288665E+00
          0                 6           1             4    7     1       0.1179971469E-04       4    6    1         0.6977032267E-03      0.1689560230E-02

    ------------------------------------------------
       NWT REQUIRED            6 OUTER ITERATIONS 
       AND A TOTAL OF         11 INNER ITERATIONS.
    ------------------------------------------------

 NO OUTPUT CONTROL FOR STRESS PERIOD    6   TIME STEP   16
 
 SOLVING FOR HEAD 
                                                   Max.-Head-Change                         Max.-Flux-Residual
  Residual-Control   Outer-Iter.   Inner-Iter.     Column Row Layer    Maximum-Head-Change  Column Row Layer    Maximum-Flux-Residual          L2-NORM 
          0                 1           2             2   13     1       0.4815998944E-02       2   13    1         0.2712361332E+00      0.7165797382E+00
          0                 2           2             2    2     1      -0.4519364088E-03       4   13    1        -0.2611427057E-01      0.7065565249E-01
          0                 3           2             4    7     1      -0.2306371299E-01       4    8    1        -0.1238712300E+01      0.3047959787E+01
          0                 4           2             4    7     1       0.2401119765E-01       4    8    1         0.1325582497E+01      0.3247035562E+01
          0                 5           2             4    7     1      -0.9558434109E-03       4    6    1        -0.5499630176E-01      0.1331555803E+00
          0                 6           1             4    7     1       0.1180151188E-04       4    6    1         0.6980225944E-03      0.1689913276E-02

    ------------------------------------------------
       NWT REQUIRED            6 OUTER ITERATIONS 
       AND A TOTAL OF         11 INNER ITERATIONS.
    ------------------------------------------------

 NO OUTPUT CONTROL FOR STRESS PERIOD    6   TIME STEP   17
 
 SOLVING FOR HEAD 
                                                   Max.-Head-Change                         Max.-Flux-Residual
  Residual-Control   Outer-Iter.   Inner-Iter.     Column Row Layer    Maximum-Head-Change  Column Row Layer    Maximum-Flux-Residual          L2-NORM 
          0                 1           2             2   13     1       0.4669050639E-02       2   13    1         0.2629509495E+00      0.7055646244E+00
          0                 2           2             2    2     1      -0.4496857012E-03       4   13    1        -0.2534085919E-01      0.6959474912E-01
          0                 3           2             4    7     1      -0.2306694573E-01       4    8    1        -0.1238885916E+01      0.3048380257E+01
          0                 4           2             4    7     1       0.2401439606E-01       4    8    1         0.1325768936E+01      0.3247498602E+01
          0                 5           2             4    7     1      -0.9557970456E-03       4    8    1        -0.5424018407E-01      0.1328572808E+00
          0                 6           1             4    7     1       0.1180093925E-04       4    8    1         0.6883117221E-03      0.1685932903E-02

    ------------------------------------------------
       NWT REQUIRED            6 OUTER ITERATIONS 
       AND A TOTAL OF         11 INNER ITERATIONS.
    ------------------------------------------------

 NO OUTPUT CONTROL FOR STRESS PERIOD    6   TIME STEP   18
 
 SOLVING FOR HEAD 
                                                   Max.-Head-Change                         Max.-Flux-Residual
  Residual-Control   Outer-Iter.   Inner-Iter.     Column Row Layer    Maximum-Head-Change  Column Row Layer    Maximum-Flux-Residual          L2-NORM 
          0                 1           2             2    2     1       0.4600011217E-02       2   13    1         0.2552880726E+00      0.6954387926E+00
          0                 2           2             2    2     1      -0.4474563709E-03       4   13    1        -0.2464109916E-01      0.6862370392E-01
          0                 3           2             4    7     1      -0.2307001227E-01       4    8    1        -0.1239050657E+01      0.3048778868E+01
          0                 4           2             4    7     1       0.2401760187E-01       4    8    1         0.1325945931E+01      0.3247932110E+01
          0                 5           2             4    7     1      -0.9559246406E-03       4    8    1        -0.5424742553E-01      0.1328750176E+00
          0                 6           1             4    7     1       0.1180251352E-04       4    8    1         0.6884035624E-03      0.1686153795E-02

    ------------------------------------------------
       NWT REQUIRED            6 OUTER ITERATIONS 
       AND A TOTAL OF         11 INNER ITERATIONS.
    ------------------------------------------------

 NO OUTPUT CONTROL FOR STRESS PERIOD    6   TIME STEP   19
 
 SOLVING FOR HEAD 
                                                   Max.-Head-Change                         Max.-Flux-Residual
  Residual-Control   Outer-Iter.   Inner-Iter.     Column Row Layer    Maximum-Head-Change  Column Row Layer    Maximum-Flux-Residual          L2-NORM 
          0                 1           2             2    2     1       0.4577394094E-02       2   13    1         0.2482062767E+00      0.6861152843E+00
          0                 2           2             2    2     1      -0.4452563306E-03       4   13    1        -0.2400635618E-01      0.6772824969E-01
          0                 3           2             4    7     1      -0.2307293189E-01       4    8    1        -0.1239207451E+01      0.3049158610E+01
          0                 4           2             4    7     1       0.2402065299E-01       4    8    1         0.1326114384E+01      0.3248344697E+01
          0                 5           2             4    7     1      -0.9560460790E-03       4    8    1        -0.5425431748E-01      0.1328918974E+00
          0                 6           1             4    7     1       0.1180401229E-04       4    8    1         0.6884909667E-03      0.1686370993E-02

    ------------------------------------------------
       NWT REQUIRED            6 OUTER ITERATIONS 
       AND A TOTAL OF         11 INNER ITERATIONS.
    ------------------------------------------------

 NO OUTPUT CONTROL FOR STRESS PERIOD    6   TIME STEP   20
 
 SOLVING FOR HEAD 
                                                   Max.-Head-Change                         Max.-Flux-Residual
  Residual-Control   Outer-Iter.   Inner-Iter.     Column Row Layer    Maximum-Head-Change  Column Row Layer    Maximum-Flux-Residual          L2-NORM 
          0                 1           2             2    2     1       0.4555073109E-02       2   13    1         0.2416496424E+00      0.6775255283E+00
          0                 2           2             2    2     1      -0.4430850970E-03       2    2    1        -0.2374862681E-01      0.6690142363E-01
          0                 3           2             4    7     1      -0.2307571159E-01       4    8    1        -0.1239356731E+01      0.3049520349E+01
          0                 4           2             4    7     1       0.2402355854E-01       4    8    1         0.1326274800E+01      0.3248737614E+01
          0                 5           2             4    7     1      -0.9561617235E-03       4    8    1        -0.5426088061E-01      0.1329079771E+00
          0                 6           1             4    7     1       0.1180543938E-04       4    8    1         0.6885742077E-03      0.1686579941E-02

    ------------------------------------------------
       NWT REQUIRED            6 OUTER ITERATIONS 
       AND A TOTAL OF         11 INNER ITERATIONS.
    ------------------------------------------------

 NO OUTPUT CONTROL FOR STRESS PERIOD    6   TIME STEP   21
 
 SOLVING FOR HEAD 
                                                   Max.-Head-Change                         Max.-Flux-Residual
  Residual-Control   Outer-Iter.   Inner-Iter.     Column Row Layer    Maximum-Head-Change  Column Row Layer    Maximum-Flux-Residual          L2-NORM 
          0                 1           2             2    2     1       0.4533044084E-02       2    2    1         0.2363284846E+00      0.6695866765E+00
          0                 2           2             2    2     1      -0.4409422631E-03       2    2    1        -0.2363289392E-01      0.6613792494E-01
          0                 3           2             4    7     1      -0.2307836030E-01       4    8    1        -0.1239498976E+01      0.3049865488E+01
          0                 4           2             4    7     1       0.2402632777E-01       4    8    1         0.1326427690E+01      0.3249112103E+01
          0                 5           2             4    7     1      -0.9562719421E-03       4    8    1        -0.5426713585E-01      0.1329232755E+00
          0                 6           1             4    7     1       0.1180679947E-04       4    8    1         0.6886535552E-03      0.1686769504E-02

    ------------------------------------------------
       NWT REQUIRED            6 OUTER ITERATIONS 
       AND A TOTAL OF         11 INNER ITERATIONS.
    ------------------------------------------------

 NO OUTPUT CONTROL FOR STRESS PERIOD    6   TIME STEP   22
 
 SOLVING FOR HEAD 
                                                   Max.-Head-Change                         Max.-Flux-Residual
  Residual-Control   Outer-Iter.   Inner-Iter.     Column Row Layer    Maximum-Head-Change  Column Row Layer    Maximum-Flux-Residual          L2-NORM 
          0                 1           2             2    2     1       0.4511302154E-02       2    2    1         0.2351863006E+00      0.6622450590E+00
          0                 2           2             2    2     1      -0.4388273564E-03       2    2    1        -0.2351867488E-01      0.6543121284E-01
          0                 3           2             4    7     1      -0.2308088722E-01       4    8    1        -0.1239634782E+01      0.3050194692E+01
          0                 4           2             4    7     1       0.2402897212E-01       4    8    1         0.1326573692E+01      0.3249469700E+01
          0                 5           2             4    7     1      -0.9563771900E-03       4    8    1        -0.5427310927E-01      0.1329379202E+00
          0                 6           1             4    7     1       0.1180809819E-04       4    8    1         0.6887293080E-03      0.1686955209E-02

    ------------------------------------------------
       NWT REQUIRED            6 OUTER ITERATIONS 
       AND A TOTAL OF         11 INNER ITERATIONS.
    ------------------------------------------------

 NO OUTPUT CONTROL FOR STRESS PERIOD    6   TIME STEP   23
 
 SOLVING FOR HEAD 
                                                   Max.-Head-Change                         Max.-Flux-Residual
  Residual-Control   Outer-Iter.   Inner-Iter.     Column Row Layer    Maximum-Head-Change  Column Row Layer    Maximum-Flux-Residual          L2-NORM 
          0                 1           2             2    2     1       0.4489843279E-02       2    2    1         0.2340590022E+00      0.6554436241E+00
          0                 2           2             2    2     1      -0.4367399834E-03       2    2    1        -0.2340594438E-01      0.6477712051E-01
          0                 3           2             4    7     1      -0.2308330282E-01       4    8    1        -0.1239764460E+01      0.3050509386E+01
          0                 4           2             4    7     1       0.2403149875E-01       4    8    1         0.1326713185E+01      0.3249811378E+01
          0                 5           2             4    7     1      -0.9564777528E-03       4    8    1        -0.5427881638E-01      0.1329518890E+00
          0                 6           1             4    7     1       0.1180933887E-04       4    8    1         0.6888016910E-03      0.1687127524E-02

    ------------------------------------------------
       NWT REQUIRED            6 OUTER ITERATIONS 
       AND A TOTAL OF         11 INNER ITERATIONS.
    ------------------------------------------------

 NO OUTPUT CONTROL FOR STRESS PERIOD    6   TIME STEP   24
 
 SOLVING FOR HEAD 
                                                   Max.-Head-Change                         Max.-Flux-Residual
  Residual-Control   Outer-Iter.   Inner-Iter.     Column Row Layer    Maximum-Head-Change  Column Row Layer    Maximum-Flux-Residual          L2-NORM 
          0                 1           2             2    2     1       0.4468578413E-02       2    2    1         0.2329419331E+00      0.6491327853E+00
          0                 2           2             2    2     1      -0.4346714823E-03       2    2    1        -0.2329423685E-01      0.6416788365E-01
          0                 3           2             4    7     1      -0.2308561190E-01       4    8    1        -0.1239888465E+01      0.3050810859E+01
          0                 4           2             4    7     1       0.2403391447E-01       4    8    1         0.1326846560E+01      0.3250138090E+01
          0                 5           2             4    7     1      -0.9565739014E-03       4    8    1        -0.5428427316E-01      0.1329652627E+00
          0                 6           1             4    7     1       0.1181052512E-04       4    8    1         0.6888709145E-03      0.1687299686E-02

    ------------------------------------------------
       NWT REQUIRED            6 OUTER ITERATIONS 
       AND A TOTAL OF         11 INNER ITERATIONS.
    ------------------------------------------------

 NO OUTPUT CONTROL FOR STRESS PERIOD    6   TIME STEP   25
 
 SOLVING FOR HEAD 
                                                   Max.-Head-Change                         Max.-Flux-Residual
  Residual-Control   Outer-Iter.   Inner-Iter.     Column Row Layer    Maximum-Head-Change  Column Row Layer    Maximum-Flux-Residual          L2-NORM 
          0                 1           2             2    2     1       0.4447588630E-02       2    2    1         0.2318393699E+00      0.6432684506E+00
          0                 2           2             2    2     1      -0.4326297392E-03       2    2    1        -0.2318397990E-01      0.6360312917E-01
          0                 3           2             4    7     1      -0.2308782148E-01       4    8    1        -0.1240007226E+01      0.3051099319E+01
          0                 4           2             4    7     1       0.2403622842E-01       4    8    1         0.1326974321E+01      0.3250451045E+01
          0                 5           2             4    7     1      -0.9566659992E-03       4    8    1        -0.5428950031E-01      0.1329780712E+00
          0                 6           1             4    7     1       0.1181166141E-04       4    8    1         0.6889371871E-03      0.1687463718E-02

    ------------------------------------------------
       NWT REQUIRED            6 OUTER ITERATIONS 
       AND A TOTAL OF         11 INNER ITERATIONS.
    ------------------------------------------------

 NO OUTPUT CONTROL FOR STRESS PERIOD    6   TIME STEP   26
 
 SOLVING FOR HEAD 
                                                   Max.-Head-Change                         Max.-Flux-Residual
  Residual-Control   Outer-Iter.   Inner-Iter.     Column Row Layer    Maximum-Head-Change  Column Row Layer    Maximum-Flux-Residual          L2-NORM 
          0                 1           2             2    2     1       0.4426870129E-02       2    2    1         0.2307510695E+00      0.6378107080E+00
          0                 2           2             2    2     1      -0.4306143848E-03       2    2    1        -0.2307514925E-01      0.6307723118E-01
          0                 3           2             4    7     1      -0.2308994198E-01       4    8    1        -0.1240121054E+01      0.3051376225E+01
          0                 4           2             4    7     1       0.2403844776E-01       4    8    1         0.1327096850E+01      0.3250751195E+01
          0                 5           2             4    7     1      -0.9567543317E-03       4    8    1        -0.5429451337E-01      0.1329903449E+00
          0                 6           1             4    7     1       0.1181275200E-04       4    8    1         0.6890007617E-03      0.1687627129E-02

    ------------------------------------------------
       NWT REQUIRED            6 OUTER ITERATIONS 
       AND A TOTAL OF         11 INNER ITERATIONS.
    ------------------------------------------------

 NO OUTPUT CONTROL FOR STRESS PERIOD    6   TIME STEP   27
 
 SOLVING FOR HEAD 
                                                   Max.-Head-Change                         Max.-Flux-Residual
  Residual-Control   Outer-Iter.   Inner-Iter.     Column Row Layer    Maximum-Head-Change  Column Row Layer    Maximum-Flux-Residual          L2-NORM 
          0                 1           2             2    2     1       0.4406418752E-02       2    2    1         0.2296768349E+00      0.6327214912E+00
          0                 2           2             2    2     1      -0.4286250145E-03       2    2    1        -0.2296772520E-01      0.6258452939E-01
          0                 3           2             4    7     1      -0.2309197373E-01       4    8    1        -0.1240230166E+01      0.3051641730E+01
          0                 4           2             4    7     1       0.2404057468E-01       4    8    1         0.1327214281E+01      0.3251038856E+01
          0                 5           2             4    7     1      -0.9568389858E-03       4    8    1        -0.5429931783E-01      0.1330021236E+00
          0                 6           1             4    7     1       0.1181379643E-04       4    8    1         0.6890616978E-03      0.1687772770E-02

    ------------------------------------------------
       NWT REQUIRED            6 OUTER ITERATIONS 
       AND A TOTAL OF         11 INNER ITERATIONS.
    ------------------------------------------------

 NO OUTPUT CONTROL FOR STRESS PERIOD    6   TIME STEP   28
 
 SOLVING FOR HEAD 
                                                   Max.-Head-Change                         Max.-Flux-Residual
  Residual-Control   Outer-Iter.   Inner-Iter.     Column Row Layer    Maximum-Head-Change  Column Row Layer    Maximum-Flux-Residual          L2-NORM 
          0                 1           2             2    2     1       0.4386230436E-02       2    2    1         0.2286164504E+00      0.6279798826E+00
          0                 2           2             2    2     1      -0.4266612332E-03       2    2    1        -0.2286168616E-01      0.6212796811E-01
          0                 3           2             4    7     1      -0.2309392381E-01       4    8    1        -0.1240334989E+01      0.3051896878E+01
          0                 4           2             4    7     1       0.2404261831E-01       4    8    1         0.1327327119E+01      0.3251315273E+01
          0                 5           2             4    7     1      -0.9569203249E-03       4    8    1        -0.5430393444E-01      0.1330134221E+00
          0                 6           1             4    7     1       0.1181480010E-04       4    8    1         0.6891202529E-03      0.1687914233E-02

    ------------------------------------------------
       NWT REQUIRED            6 OUTER ITERATIONS 
       AND A TOTAL OF         11 INNER ITERATIONS.
    ------------------------------------------------

 NO OUTPUT CONTROL FOR STRESS PERIOD    6   TIME STEP   29
 
 SOLVING FOR HEAD 
                                                   Max.-Head-Change                         Max.-Flux-Residual
  Residual-Control   Outer-Iter.   Inner-Iter.     Column Row Layer    Maximum-Head-Change  Column Row Layer    Maximum-Flux-Residual          L2-NORM 
          0                 1           2             2    2     1       0.4097821647E-02       2    2    1         0.2135388180E+00      0.5518022454E+00
          0                 2           2             2    2     1      -0.3986068264E-03       2    2    1        -0.2135391656E-01      0.5477177377E-01
          0                 3           2             4    7     1      -0.2309579827E-01       4    8    1        -0.1240435598E+01      0.3052108801E+01
          0                 4           2             4    7     1       0.2404458121E-01       4    8    1         0.1327435491E+01      0.3251580653E+01
          0                 5           2             4    7     1      -0.9569984503E-03       4    8    1        -0.5430836826E-01      0.1330242852E+00
          0                 6           1             4    7     1       0.1181576433E-04       4    8    1         0.6891765024E-03      0.1688049283E-02

    ------------------------------------------------
       NWT REQUIRED            6 OUTER ITERATIONS 
       AND A TOTAL OF         11 INNER ITERATIONS.
    ------------------------------------------------

 NO OUTPUT CONTROL FOR STRESS PERIOD    6   TIME STEP   30



 STREAM LISTING     PERIOD      6   STEP       30

 LAYER ROW COL. STREAM  RCH.  FLOW INTO     FLOW TO   FLOW OUT OF   OVRLND.     DIRECT     STREAM       STREAM     STREAM     STREAM   STREAMBED  STREAMBED
                SEG.NO.  NO.  STRM. RCH.    AQUIFER    STRM. RCH.    RUNOFF     PRECIP       ET          HEAD       DEPTH      WIDTH   CONDCTNC.   GRADIENT

   1    1    1     1     1    3.4633E+01  2.8494E-01   3.4348E+01  0.000E+00  0.000E+00  0.000E+00  1.09434E+03  1.289E+00  1.476E+01  6.643E-02  1.430E+00
   1    2    2     1     2    3.4348E+01  4.4115E-01   3.3907E+01  0.000E+00  0.000E+00  0.000E+00  1.08934E+03  1.286E+00  1.470E+01  1.029E-01  1.429E+00
   1    3    3     1     3    3.3907E+01  3.7610E-01   3.3531E+01  0.000E+00  0.000E+00  0.000E+00  1.08370E+03  1.283E+00  1.464E+01  8.782E-02  1.428E+00
   1    3    4     1     4    3.3531E+01  3.4622E-01   3.3185E+01  0.000E+00  0.000E+00  0.000E+00  1.07869E+03  1.280E+00  1.458E+01  8.090E-02  1.427E+00
   1    4    5     2     1    3.1185E+01  3.4119E-01   3.0843E+01  0.000E+00  0.000E+00  0.000E+00  1.07331E+03  1.374E+00  1.200E+01  7.800E-02  1.458E+00
   1    5    6     2     2    3.0843E+01  2.6198E-01   3.0581E+01  0.000E+00  0.000E+00  0.000E+00  1.06788E+03  1.366E+00  1.200E+01  6.000E-02  1.455E+00
   1    6    6     2     3    3.0581E+01  2.6156E-01   3.0320E+01  0.000E+00  0.000E+00  0.000E+00  1.06315E+03  1.359E+00  1.200E+01  6.000E-02  1.453E+00
   1    7    6     2     4    3.0320E+01  2.6113E-01   3.0059E+01  0.000E+00  0.000E+00  0.000E+00  1.05843E+03  1.352E+00  1.200E+01  6.000E-02  1.451E+00
   1    8    6     2     5    3.0059E+01  2.6071E-01   2.9798E+01  0.000E+00  0.000E+00  0.000E+00  1.05370E+03  1.345E+00  1.200E+01  6.000E-02  1.448E+00
   1    3    5     3     1    2.0000E+00  2.8252E-01   1.7175E+00  0.000E+00  0.000E+00  0.000E+00  1.07555E+03  1.909E+00  9.636E+00  7.227E-02  1.955E+00
   1    3    6     3     2    1.7175E+00  2.4905E-01   1.4684E+00  0.000E+00  0.000E+00  0.000E+00  1.07264E+03  1.727E+00  8.909E+00  6.682E-02  1.864E+00
   1    3    7     3     3    1.4684E+00  1.9718E-01   1.2712E+00  0.000E+00  0.000E+00  0.000E+00  1.06987E+03  1.555E+00  8.218E+00  5.547E-02  1.777E+00
   1    4    8     3     4    1.2712E+00  2.2567E-01   1.0456E+00  0.000E+00  0.000E+00  0.000E+00  1.06682E+03  1.364E+00  7.455E+00  6.709E-02  1.682E+00
   1    5    8     3     5    1.0456E+00  1.5790E-01   8.8768E-01  0.000E+00  0.000E+00  0.000E+00  1.06362E+03  1.164E+00  6.655E+00  4.991E-02  1.582E+00
   1    6    8     3     6    8.8768E-01  5.5980E-02   8.3170E-01  0.000E+00  0.000E+00  0.000E+00  1.06158E+03  1.036E+00  6.145E+00  1.844E-02  1.518E+00
   1    5   10     4     1    1.0000E+01  9.0919E-02   9.9091E+00  0.000E+00  0.000E+00  0.000E+00  1.07836E+03  6.368E-01  1.000E+01  2.500E-02  1.212E+00
   1    5    9     4     2    9.9091E+00  1.8158E-01   9.7275E+00  0.000E+00  0.000E+00  0.000E+00  1.07154E+03  6.315E-01  1.000E+01  5.000E-02  1.211E+00
   1    6    8     4     3    9.7275E+00  1.2689E-01   9.6006E+00  0.000E+00  0.000E+00  0.000E+00  1.06381E+03  6.256E-01  1.000E+01  3.500E-02  1.209E+00
   1    6    8     5     1    1.0432E+01  2.2686E-01   1.0205E+01  0.000E+00  0.000E+00  0.000E+00  1.05868E+03  6.790E-01  1.542E+01  6.166E-02  1.226E+00
   1    7    7     5     2    1.0205E+01  2.7894E-01   9.9265E+00  0.000E+00  0.000E+00  0.000E+00  1.05417E+03  6.732E-01  1.519E+01  7.594E-02  1.224E+00
   1    8    7     5     3    9.9265E+00  1.9221E-01   9.7343E+00  0.000E+00  0.000E+00  0.000E+00  1.04992E+03  6.676E-01  1.497E+01  5.241E-02  1.223E+00
   1    8    6     5     4    9.7343E+00  1.3577E-01   9.5985E+00  0.000E+00  0.000E+00  0.000E+00  1.04691E+03  6.637E-01  1.482E+01  3.706E-02  1.221E+00
   1    9    6     6     1    3.1953E+01  2.6467E-01   3.1688E+01  0.000E+00  0.000E+00  0.000E+00  1.04414E+03  1.411E+00  1.200E+01  6.000E-02  1.470E+00
   1   10    7     6     2    3.1688E+01  2.6425E-01   3.1424E+01  0.000E+00  0.000E+00  0.000E+00  1.03959E+03  1.404E+00  1.200E+01  6.000E-02  1.468E+00
   1   11    7     6     3    3.1424E+01  2.6383E-01   3.1160E+01  0.000E+00  0.000E+00  0.000E+00  1.03503E+03  1.397E+00  1.200E+01  6.000E-02  1.466E+00
   1   12    7     6     4    3.1160E+01  2.6340E-01   3.0897E+01  0.000E+00  0.000E+00  0.000E+00  1.03048E+03  1.390E+00  1.200E+01  6.000E-02  1.463E+00
   1   13    7     6     5    3.0897E+01  1.0359E-02   3.0887E+01  0.000E+00  0.000E+00  0.000E+00  1.02730E+03  1.386E+00  1.200E+01  2.400E-02  1.439E-01
   1   14    9     7     1    1.5000E+02  1.3677E+00   1.4863E+02  0.000E+00  0.000E+00  0.000E+00  1.03987E+03  2.288E+00  5.529E+01  5.593E-01  8.152E-01
   1   13    8     7     2    1.4863E+02  1.9156E+00   1.4672E+02  0.000E+00  0.000E+00  0.000E+00  1.03478E+03  2.279E+00  5.526E+01  6.148E-01  1.039E+00
   1   13    7     7     3    1.4672E+02  1.5776E+00   1.4514E+02  0.000E+00  0.000E+00  0.000E+00  1.02969E+03  2.270E+00  5.521E+01  5.584E-01  9.417E-01
   1   13    6     8     1    1.7603E+02  1.0370E+00   1.7499E+02  0.000E+00  0.000E+00  0.000E+00  1.02486E+03  2.988E+00  4.332E+01  4.415E-01  7.830E-01
   1   13    5     8     2    1.7499E+02  2.6046E-01   1.7473E+02  0.000E+00  0.000E+00  0.000E+00  1.01861E+03  2.984E+00  4.326E+01  4.409E-01  1.969E-01
   1   13    4     8     3    1.7473E+02 -2.2247E+00   1.7695E+02  0.000E+00  0.000E+00  0.000E+00  1.01236E+03  2.990E+00  4.335E+01  4.418E+00 -1.679E-01
   1   13    3     8     4    1.7695E+02 -3.5405E+00   1.8049E+02  0.000E+00  0.000E+00  0.000E+00  1.00613E+03  3.008E+00  4.362E+01  4.445E+00 -2.655E-01
   1   13    2     8     5    1.8049E+02 -2.5377E+00   1.8303E+02  0.000E+00  0.000E+00  0.000E+00  9.99902E+02  3.027E+00  4.389E+01  4.473E+00 -1.891E-01
   1   13    1     8     6    1.8303E+02 -1.9427E+00   1.8497E+02  0.000E+00  0.000E+00  0.000E+00  9.94916E+02  3.041E+00  4.410E+01  2.696E+00 -2.402E-01
   1    8    6     9     1    7.4436E+00  0.0000E+00   7.4436E+00  0.000E+00  0.000E+00  0.000E+00  1.08065E+03  1.898E+00  4.000E+00  0.000E+00  1.633E+00
   1    8    5     9     2    7.4436E+00  0.0000E+00   7.4436E+00  0.000E+00  0.000E+00  0.000E+00  1.08015E+03  1.898E+00  4.000E+00  0.000E+00  1.633E+00





UNSATURATED ZONE PACKAGE VOLUMETRIC BUDGET FOR  TIME STEP    30 STRESS PERIOD    6
  ------------------------------------------------------------------------------



     CUMULATIVE VOLUMES      L**3       RATES FOR THIS TIME STEP      L**3/T
     ------------------                 ------------------------

           IN:                                      IN:
           ---                                      ---
        INFILTRATION =    40878623.7731          INFILTRATION =           8.2912

          OUT:                                     OUT:
          ----                                     ----
              UZF ET =    40493063.7567                UZF ET =           8.3175
        UZF RECHARGE =       73224.0000          UZF RECHARGE =       0.0000E+00

            IN - OUT =      312336.0164              IN - OUT =      -2.6291E-02

          STORAGE:                                 STORAGE:
          --------                                 --------
      STORAGE CHANGE =      312334.8857        STORAGE CHANGE =      -2.6291E-02

 PERCENT DISCREPANCY IS DIFFERENCE BETWEEN IN-OUT MINUS CHANGE IN STORAGE
 DIVIDED BY THE AVERAGE OF IN AND OUT TIMES 100

 PERCENT DISCREPANCY =           0.00     PERCENT DISCREPANCY =          -0.00






1
  VOLUMETRIC BUDGET FOR AGRICULTURAL FIELDS AT  END OF TIME STEP   30, STRESS PERIOD   6
  ------------------------------------------------------------------------------

     CUMULATIVE VOLUMES      L**3       RATES FOR THIS TIME STEP      L**3/T
     ------------------                 ------------------------

           IN:                                      IN:
           ---                                      ---
               AG WELLS  =       76631.2578                 AG WELLS  =           0.0000
      DIVERSION SEGMENTS =    29583552.0000        DIVERSION SEGMENTS =           7.4436
       IRRIGATION PONDS  =           0.0000         IRRIGATION PONDS  =           0.0000
           GW IRRIGATION =           0.0000             GW IRRIGATION =           0.0000
           SW IRRIGATION =           0.0000             SW IRRIGATION =           0.0000
        SYSTEM LOSSES GW =           0.0000          SYSTEM LOSSES GW =           0.0000
        SYSTEM LOSSES SW =           0.0000          SYSTEM LOSSES SW =           0.0000

                TOTAL IN =    29660184.0000                  TOTAL IN =           7.4436

          OUT:                                     OUT:
          ----                                     ----
               AG WELLS  =           0.0000                 AG WELLS  =           0.0000
      DIVERSION SEGMENTS =           0.0000        DIVERSION SEGMENTS =           0.0000
       IRRIGATION PONDS  =           0.0000         IRRIGATION PONDS  =           0.0000
           GW IRRIGATION =       76631.2578             GW IRRIGATION =           0.0000
           SW IRRIGATION =    29584152.0000             SW IRRIGATION =           7.4437
        SYSTEM LOSSES GW =           0.0000          SYSTEM LOSSES GW =           0.0000
        SYSTEM LOSSES SW =           0.0000          SYSTEM LOSSES SW =           0.0000

               TOTAL OUT =    29660784.0000                 TOTAL OUT =           7.4437

                IN - OUT =        -600.0000                  IN - OUT =      -1.4877E-04

     PERCENT DISCREPANCY =          -0.00         PERCENT DISCREPANCY =          -0.00



1
  VOLUMETRIC BUDGET FOR ENTIRE MODEL AT END OF TIME STEP   30, STRESS PERIOD   6
  ------------------------------------------------------------------------------

     CUMULATIVE VOLUMES      L**3       RATES FOR THIS TIME STEP      L**3/T
     ------------------                 ------------------------

           IN:                                      IN:
           ---                                      ---
             STORAGE     =     8168771.0000               STORAGE     =           0.3855
       CONSTANT HEAD     =           0.0000         CONSTANT HEAD     =           0.0000
     HEAD DEP BOUNDS     =     3810180.0000       HEAD DEP BOUNDS     =           0.2879
      STREAM LEAKAGE     =   156236560.0000        STREAM LEAKAGE     =          12.4613
        UZF RECHARGE     =       73223.9531          UZF RECHARGE     =           0.0000
               GW ET     =           0.0000                 GW ET     =           0.0000
     SURFACE LEAKAGE     =           0.0000       SURFACE LEAKAGE     =           0.0000
           AG WELLS      =           0.0000             AG WELLS      =           0.0000

                TOTAL IN =   168288720.0000                  TOTAL IN =          13.1348

          OUT:                                     OUT:
          ----                                     ----
             STORAGE     =    29871830.0000               STORAGE     =           2.5990
       CONSTANT HEAD     =           0.0000         CONSTANT HEAD     =           0.0000
     HEAD DEP BOUNDS     =     3818298.0000       HEAD DEP BOUNDS     =           0.2902
      STREAM LEAKAGE     =   134525504.0000        STREAM LEAKAGE     =          10.2455
        UZF RECHARGE     =           0.0000          UZF RECHARGE     =           0.0000
               GW ET     =           0.0000                 GW ET     =           0.0000
     SURFACE LEAKAGE     =           0.0000       SURFACE LEAKAGE     =           0.0000
           AG WELLS      =       76631.2578             AG WELLS      =           0.0000

               TOTAL OUT =   168292256.0000                 TOTAL OUT =          13.1347

                IN - OUT =       -3536.0000                  IN - OUT =       6.5804E-05

     PERCENT DISCREPANCY =          -0.00         PERCENT DISCREPANCY =           0.00






         TIME SUMMARY AT END OF TIME STEP   30 IN STRESS PERIOD    6
                    SECONDS     MINUTES      HOURS       DAYS        YEARS
                    -----------------------------------------------------------
   TIME STEP LENGTH  87667.      1461.1      24.352      1.0147     2.77799E-03
 STRESS PERIOD TIME 2.63000E+06  43833.      730.56      30.440     8.33397E-02
         TOTAL TIME 1.32364E+07 2.20607E+05  3676.8      153.20     0.41944    
1
1
                            STRESS PERIOD NO.    7, LENGTH =   2630000.    
                            -----------------------------------------------

                              NUMBER OF TIME STEPS =    30

                               MULTIPLIER FOR DELT =     1.000

                            INITIAL TIME STEP SIZE =   87666.66    

 REUSING NON-PARAMETER GHB CELLS FROM LAST STRESS PERIOD

      2 GHB CELLS

 REUSING STREAM SEGMENT DATA FROM LAST STRESS PERIOD



            AREAL INFILTRATION RATE
 READING ON UNIT   19 WITH FORMAT: (FREE)              

            1           2           3           4           5           6           7           8           9          10
 ........................................................................................................................
   1   1.0000E-10  2.0000E-10   0.000       0.000       0.000       0.000       0.000       0.000       0.000       0.000    
   2   2.0000E-10  1.0000E-10  2.0000E-10   0.000       0.000      8.0000E-10  8.0000E-10  5.0000E-10   0.000       0.000    
   3    0.000      5.0000E-10  1.0000E-10  1.0000E-10  8.0000E-10  8.0000E-10  5.0000E-10  5.0000E-10   0.000       0.000    
   4   8.0000E-10  5.0000E-10  1.0000E-10  1.0000E-10  1.0000E-10  1.0000E-10  1.0000E-10  1.0000E-10  2.0000E-10   0.000    
   5   8.0000E-10  5.0000E-10  1.0000E-10  1.0000E-10  1.0000E-10  1.0000E-10  1.0000E-10  1.0000E-10  1.0000E-10  1.0000E-10
   6   8.0000E-10  5.0000E-10  5.0000E-10  2.0000E-10  2.0000E-10  1.0000E-10  1.0000E-10  1.0000E-10  1.0000E-10  5.0000E-10
   7   8.0000E-10  5.0000E-10  5.0000E-10  2.0000E-10  2.0000E-10  1.0000E-10  1.0000E-10  2.0000E-10  2.0000E-10   0.000    
   8    0.000      5.0000E-10  5.0000E-10  2.0000E-10  2.0000E-10  1.0000E-10  1.0000E-10  2.0000E-10  5.0000E-10   0.000    
   9    0.000      5.0000E-10  5.0000E-10  2.0000E-10  2.0000E-10  1.0000E-10  1.0000E-10  2.0000E-10  5.0000E-10   0.000    
  10    0.000      5.0000E-10  5.0000E-10  2.0000E-10  2.0000E-10  1.0000E-10  1.0000E-10  2.0000E-10  5.0000E-10  8.0000E-10
  11    0.000      1.0000E-10  1.0000E-10  1.0000E-10  1.0000E-10  1.0000E-10  1.0000E-10  2.0000E-10  5.0000E-10   0.000    
  12   1.0000E-10  1.0000E-10  1.0000E-10  1.0000E-10  1.0000E-10  1.0000E-10  1.0000E-10  1.0000E-10  2.0000E-10   0.000    
  13   1.0000E-10  1.0000E-10  2.0000E-10  2.0000E-10  2.0000E-10  2.0000E-10  2.0000E-10  1.0000E-10  1.0000E-10   0.000    
  14    0.000      2.0000E-10  5.0000E-10  5.0000E-10  5.0000E-10  5.0000E-10  5.0000E-10  2.0000E-10  1.0000E-10   0.000    
  15    0.000       0.000      8.0000E-10  8.0000E-10  8.0000E-10  8.0000E-10   0.000       0.000       0.000       0.000    

                  ET RATE =  1.500000E-07

 USING ET EXTINCTION DEPTH FROM PREVIOUS STRESS PERIOD. CURRENT PERIOD IS:       7

 USING EXTINCTION WATER CONTENT FROM PREVIOUS STRESS PERIOD. CURRENT PERIOD IS:       7

 USING AIR ENTRY PRESSURE FROM PREVIOUS STRESS PERIOD. CURRENT PERIOD IS:       7

 USING ROOT PRESSURE HEAD FROM PREVIOUS STRESS PERIOD. CURRENT PERIOD IS:       7

 USING ROOT ACTIVITY FROM PREVIOUS STRESS PERIOD. CURRENT PERIOD IS:       7

 PROCESSING AG STRESS PERIOD DATA

 READING AG STRESS PERIOD DATA

 READING IRRIGATION SEGMENT

 READING IRRIGATION WELL

 READING SUPPLEMENTAL WELL

 NO IRRPOND OR REUSING IRRPOND DATA FROM LAST STRESS PERIOD

 END PROCESSING AG STRESS PERIOD DATA OPTIONS
 
 SOLVING FOR HEAD 
                                                   Max.-Head-Change                         Max.-Flux-Residual
  Residual-Control   Outer-Iter.   Inner-Iter.     Column Row Layer    Maximum-Head-Change  Column Row Layer    Maximum-Flux-Residual          L2-NORM 
          0                 1           2             4   13     1      -0.7574483483E-02       4   13    1        -0.4341034616E+00      0.8395553309E+00
          0                 2           2             4    7     1      -0.4004839712E-01       5    6    1        -0.2152891754E+01      0.5271121017E+01
          0                 3           2             4    7     1       0.1446524767E-01       5    6    1         0.7987338467E+00      0.1956117656E+01
          0                 4           2             4    7     1      -0.5756140841E-03       4    6    1        -0.3277504704E-01      0.8005740704E-01
          0                 5           1             4    7     1       0.7097565799E-05       4    6    1         0.4153605678E-03      0.1014745389E-02

    ------------------------------------------------
       NWT REQUIRED            5 OUTER ITERATIONS 
       AND A TOTAL OF          9 INNER ITERATIONS.
    ------------------------------------------------

 NO OUTPUT CONTROL FOR STRESS PERIOD    7   TIME STEP    1
 
 SOLVING FOR HEAD 
                                                   Max.-Head-Change                         Max.-Flux-Residual
  Residual-Control   Outer-Iter.   Inner-Iter.     Column Row Layer    Maximum-Head-Change  Column Row Layer    Maximum-Flux-Residual          L2-NORM 
          0                 1           2             2    2     1       0.3669363388E-02       2    2    1         0.1911394570E+00      0.5166049728E+00
          0                 2           2             7   13     1      -0.2335777545E-02       7   13    1        -0.1295595503E+00      0.1380355427E+00
          0                 3           2             4    7     1      -0.2156476412E-01       4    7    1        -0.1158156176E+01      0.2849462332E+01
          0                 4           2             4    7     1       0.2138376737E-01       4    7    1         0.1180534926E+01      0.2891452060E+01
          0                 5           2             4    7     1      -0.2655973195E-03       4    6    1        -0.1518547344E-01      0.3748571651E-01
          0                 6           2             4    7     1      -0.1772898903E-03       5    6    1        -0.1006041277E-01      0.2602804576E-01
          0                 7           2             4    7     1      -0.1725150038E-02       4    6    1        -0.9789327947E-01      0.2418248220E+00
          0                 8           2             4    7     1       0.1739923362E-02       4    8    1         0.1014757437E+00      0.2486787141E+00
          0                 9           1             4   13     1      -0.6891968338E-04       4   13    1        -0.4290614525E-02      0.1113923125E-01

    ------------------------------------------------
       NWT REQUIRED            9 OUTER ITERATIONS 
       AND A TOTAL OF         17 INNER ITERATIONS.
    ------------------------------------------------

 NO OUTPUT CONTROL FOR STRESS PERIOD    7   TIME STEP    2
 
 SOLVING FOR HEAD 
                                                   Max.-Head-Change                         Max.-Flux-Residual
  Residual-Control   Outer-Iter.   Inner-Iter.     Column Row Layer    Maximum-Head-Change  Column Row Layer    Maximum-Flux-Residual          L2-NORM 
          0                 1           2             2    2     1       0.3654780206E-02       2    2    1         0.1903739887E+00      0.4991518970E+00
          0                 2           2             4    7     1      -0.4227061457E-01       5    6    1        -0.2275330264E+01      0.5594337022E+01
          0                 3           2             4    7     1      -0.1042035973E+00       4    6    1        -0.5597263803E+01      0.1371528262E+02
          0                 4           2             4    7     1       0.4512964000E-01       4    6    1         0.2492864474E+01      0.6105312421E+01
          0                 5           2             4    7     1      -0.1796189355E-02       4    6    1        -0.1019831014E+00      0.2497944239E+00
          0                 6           1             4    7     1       0.2216421514E-04       4    6    1         0.1293398808E-02      0.3173727387E-02

    ------------------------------------------------
       NWT REQUIRED            6 OUTER ITERATIONS 
       AND A TOTAL OF         11 INNER ITERATIONS.
    ------------------------------------------------

 NO OUTPUT CONTROL FOR STRESS PERIOD    7   TIME STEP    3
 
 SOLVING FOR HEAD 
                                                   Max.-Head-Change                         Max.-Flux-Residual
  Residual-Control   Outer-Iter.   Inner-Iter.     Column Row Layer    Maximum-Head-Change  Column Row Layer    Maximum-Flux-Residual          L2-NORM 
          0                 1           2             5    6     1       0.4722113754E-02       5    6    1         0.2565570528E+00      0.7087595323E+00
          0                 2           2             7   13     1      -0.2339893252E-02       7   13    1        -0.1297856332E+00      0.1462112461E+00
          0                 3           2             7   13     1       0.1592916571E-03       7   13    1         0.9082401449E-02      0.1021478329E-01
          0                 4           1             7   13     1      -0.6334880783E-05       7   13    1        -0.3712694393E-03      0.4166077883E-03

    ------------------------------------------------
       NWT REQUIRED            4 OUTER ITERATIONS 
       AND A TOTAL OF          7 INNER ITERATIONS.
    ------------------------------------------------

 NO OUTPUT CONTROL FOR STRESS PERIOD    7   TIME STEP    4
 
 SOLVING FOR HEAD 
                                                   Max.-Head-Change                         Max.-Flux-Residual
  Residual-Control   Outer-Iter.   Inner-Iter.     Column Row Layer    Maximum-Head-Change  Column Row Layer    Maximum-Flux-Residual          L2-NORM 
          0                 1           2             5    6     1       0.4521980911E-02       5    6    1         0.2454167288E+00      0.6726635707E+00
          0                 2           2             4    7     1      -0.2476573708E-01       5    6    1        -0.1346108037E+01      0.3296600717E+01
          0                 3           2             4    7     1       0.2484005930E-01       5    6    1         0.1371758500E+01      0.3358858098E+01
          0                 4           2             4    7     1      -0.6462594464E-02       5    6    1        -0.3665562652E+00      0.9017189003E+00
          0                 5           2             4    7     1       0.9884130261E-03       4    7    1         0.5761509466E-01      0.1573447074E+00
          0                 6           2             4   13     1      -0.6481003091E-03       4   13    1        -0.4031881568E-01      0.6947528877E-01
          0                 7           2             4    7     1       0.4608361494E-02       5    8    1         0.2686204041E+00      0.6580182893E+00
          0                 8           2             4    7     1      -0.5596742200E-02       5    8    1        -0.3352733694E+00      0.8257531718E+00
          0                 9           2             4    7     1       0.2666272551E-02       5    8    1         0.1641357446E+00      0.4044378887E+00
          0                10           2             4    7     1       0.3324178912E-02       4    7    1         0.2046296946E+00      0.5012367437E+00
                                                   Max.-Head-Change                         Max.-Flux-Residual
  Residual-Control   Outer-Iter.   Inner-Iter.     Column Row Layer    Maximum-Head-Change  Column Row Layer    Maximum-Flux-Residual          L2-NORM 
          0                11           2             4    7     1       0.2227190624E-03       4    7    1         0.1370979234E-01      0.3357970659E-01
          0                12           1             4    7     1       0.1491989344E-04       4    7    1         0.9183877778E-03      0.2249363343E-02

    ------------------------------------------------
       NWT REQUIRED           12 OUTER ITERATIONS 
       AND A TOTAL OF         23 INNER ITERATIONS.
    ------------------------------------------------

 OUTPUT CONTROL FOR STRESS PERIOD    7   TIME STEP    5
    PRINT BUDGET
    SAVE BUDGET
 UBDSV1 SAVING "         STORAGE" ON UNIT 102 AT TIME STEP 5, STRESS PERIOD 7
 UBDSV2 SAVING "   CONSTANT HEAD" ON UNIT 102 AT TIME STEP 5, STRESS PERIOD 7
 UBDSV1 SAVING "FLOW RIGHT FACE " ON UNIT 102 AT TIME STEP 5, STRESS PERIOD 7
 UBDSV1 SAVING "FLOW FRONT FACE " ON UNIT 102 AT TIME STEP 5, STRESS PERIOD 7

  HEAD DEP BOUNDS   PERIOD    7   STEP     5
 BOUNDARY      1   LAYER   1   ROW    13   COL     1   RATE   -0.289869    
 BOUNDARY      2   LAYER   1   ROW    14   COL     9   RATE    0.287936    



 STREAM LISTING     PERIOD      7   STEP        5

 LAYER ROW COL. STREAM  RCH.  FLOW INTO     FLOW TO   FLOW OUT OF   OVRLND.     DIRECT     STREAM       STREAM     STREAM     STREAM   STREAMBED  STREAMBED
                SEG.NO.  NO.  STRM. RCH.    AQUIFER    STRM. RCH.    RUNOFF     PRECIP       ET          HEAD       DEPTH      WIDTH   CONDCTNC.   GRADIENT

   1    1    1     1     1    3.1125E+01  2.7165E-01   3.0853E+01  0.000E+00  0.000E+00  0.000E+00  1.09431E+03  1.259E+00  1.417E+01  6.378E-02  1.420E+00
   1    2    2     1     2    3.0853E+01  4.2045E-01   3.0433E+01  0.000E+00  0.000E+00  0.000E+00  1.08931E+03  1.256E+00  1.411E+01  9.879E-02  1.419E+00
   1    3    3     1     3    3.0433E+01  3.5834E-01   3.0075E+01  0.000E+00  0.000E+00  0.000E+00  1.08367E+03  1.252E+00  1.404E+01  8.427E-02  1.417E+00
   1    3    4     1     4    3.0075E+01  3.2976E-01   2.9745E+01  0.000E+00  0.000E+00  0.000E+00  1.07866E+03  1.249E+00  1.398E+01  7.761E-02  1.416E+00
   1    4    5     2     1    2.7745E+01  3.3390E-01   2.7411E+01  0.000E+00  0.000E+00  0.000E+00  1.07321E+03  1.281E+00  1.200E+01  7.800E-02  1.427E+00
   1    5    6     2     2    2.7411E+01  2.5635E-01   2.7155E+01  0.000E+00  0.000E+00  0.000E+00  1.06778E+03  1.273E+00  1.200E+01  6.000E-02  1.424E+00
   1    6    6     2     3    2.7155E+01  2.5592E-01   2.6899E+01  0.000E+00  0.000E+00  0.000E+00  1.06306E+03  1.265E+00  1.200E+01  6.000E-02  1.422E+00
   1    7    6     2     4    2.6899E+01  2.5549E-01   2.6643E+01  0.000E+00  0.000E+00  0.000E+00  1.05833E+03  1.258E+00  1.200E+01  6.000E-02  1.419E+00
   1    8    6     2     5    2.6643E+01  2.5506E-01   2.6388E+01  0.000E+00  0.000E+00  0.000E+00  1.05361E+03  1.251E+00  1.200E+01  6.000E-02  1.417E+00
   1    3    5     3     1    2.0000E+00  2.8252E-01   1.7175E+00  0.000E+00  0.000E+00  0.000E+00  1.07555E+03  1.909E+00  9.636E+00  7.227E-02  1.955E+00
   1    3    6     3     2    1.7175E+00  2.4905E-01   1.4684E+00  0.000E+00  0.000E+00  0.000E+00  1.07264E+03  1.727E+00  8.909E+00  6.682E-02  1.864E+00
   1    3    7     3     3    1.4684E+00  1.9718E-01   1.2712E+00  0.000E+00  0.000E+00  0.000E+00  1.06987E+03  1.555E+00  8.218E+00  5.547E-02  1.777E+00
   1    4    8     3     4    1.2712E+00  2.2567E-01   1.0456E+00  0.000E+00  0.000E+00  0.000E+00  1.06682E+03  1.364E+00  7.455E+00  6.709E-02  1.682E+00
   1    5    8     3     5    1.0456E+00  1.5790E-01   8.8768E-01  0.000E+00  0.000E+00  0.000E+00  1.06362E+03  1.164E+00  6.655E+00  4.991E-02  1.582E+00
   1    6    8     3     6    8.8768E-01  5.5980E-02   8.3170E-01  0.000E+00  0.000E+00  0.000E+00  1.06158E+03  1.036E+00  6.145E+00  1.844E-02  1.518E+00
   1    5   10     4     1    1.0000E+01  9.0919E-02   9.9091E+00  0.000E+00  0.000E+00  0.000E+00  1.07836E+03  6.368E-01  1.000E+01  2.500E-02  1.212E+00
   1    5    9     4     2    9.9091E+00  1.8158E-01   9.7275E+00  0.000E+00  0.000E+00  0.000E+00  1.07154E+03  6.315E-01  1.000E+01  5.000E-02  1.211E+00
   1    6    8     4     3    9.7275E+00  1.2689E-01   9.6006E+00  0.000E+00  0.000E+00  0.000E+00  1.06381E+03  6.256E-01  1.000E+01  3.500E-02  1.209E+00
   1    6    8     5     1    1.0432E+01  2.2686E-01   1.0205E+01  0.000E+00  0.000E+00  0.000E+00  1.05868E+03  6.790E-01  1.542E+01  6.166E-02  1.226E+00
   1    7    7     5     2    1.0205E+01  2.7894E-01   9.9265E+00  0.000E+00  0.000E+00  0.000E+00  1.05417E+03  6.732E-01  1.519E+01  7.594E-02  1.224E+00
   1    8    7     5     3    9.9265E+00  1.9221E-01   9.7343E+00  0.000E+00  0.000E+00  0.000E+00  1.04992E+03  6.676E-01  1.497E+01  5.241E-02  1.223E+00
   1    8    6     5     4    9.7343E+00  1.3577E-01   9.5985E+00  0.000E+00  0.000E+00  0.000E+00  1.04691E+03  6.637E-01  1.482E+01  3.706E-02  1.221E+00
   1    9    6     6     1    1.8466E+01  2.4085E-01   1.8225E+01  0.000E+00  0.000E+00  0.000E+00  1.04374E+03  1.014E+00  1.200E+01  6.000E-02  1.338E+00
   1   10    7     6     2    1.8225E+01  2.4037E-01   1.7984E+01  0.000E+00  0.000E+00  0.000E+00  1.03919E+03  1.006E+00  1.200E+01  6.000E-02  1.335E+00
   1   11    7     6     3    1.7984E+01  2.3988E-01   1.7745E+01  0.000E+00  0.000E+00  0.000E+00  1.03463E+03  9.981E-01  1.200E+01  6.000E-02  1.333E+00
   1   12    7     6     4    1.7745E+01  2.3940E-01   1.7505E+01  0.000E+00  0.000E+00  0.000E+00  1.03008E+03  9.900E-01  1.200E+01  6.000E-02  1.330E+00
   1   13    7     6     5    1.7505E+01  7.7218E-04   1.7504E+01  0.000E+00  0.000E+00  0.000E+00  1.02690E+03  9.860E-01  1.200E+01  2.400E-02  1.072E-02
   1   14    9     7     1    1.5000E+02  1.3678E+00   1.4863E+02  0.000E+00  0.000E+00  0.000E+00  1.03987E+03  2.288E+00  5.529E+01  5.593E-01  8.152E-01
   1   13    8     7     2    1.4863E+02  1.9154E+00   1.4672E+02  0.000E+00  0.000E+00  0.000E+00  1.03478E+03  2.279E+00  5.526E+01  6.148E-01  1.039E+00
   1   13    7     7     3    1.4672E+02  1.5781E+00   1.4514E+02  0.000E+00  0.000E+00  0.000E+00  1.02969E+03  2.270E+00  5.521E+01  5.584E-01  9.420E-01
   1   13    6     8     1    1.6264E+02  9.7026E-01   1.6167E+02  0.000E+00  0.000E+00  0.000E+00  1.02478E+03  2.900E+00  4.206E+01  4.286E-01  7.547E-01
   1   13    5     8     2    1.6167E+02  2.1600E-01   1.6146E+02  0.000E+00  0.000E+00  0.000E+00  1.01852E+03  2.896E+00  4.200E+01  4.280E-01  1.682E-01
   1   13    4     8     3    1.6146E+02 -2.4527E+00   1.6391E+02  0.000E+00  0.000E+00  0.000E+00  1.01228E+03  2.904E+00  4.211E+01  4.291E+00 -1.905E-01
   1   13    3     8     4    1.6391E+02 -3.7349E+00   1.6764E+02  0.000E+00  0.000E+00  0.000E+00  1.00605E+03  2.924E+00  4.241E+01  4.321E+00 -2.881E-01
   1   13    2     8     5    1.6764E+02 -2.7490E+00   1.7039E+02  0.000E+00  0.000E+00  0.000E+00  9.99821E+02  2.946E+00  4.271E+01  4.353E+00 -2.105E-01
   1   13    1     8     6    1.7039E+02 -2.0784E+00   1.7247E+02  0.000E+00  0.000E+00  0.000E+00  9.94836E+02  2.962E+00  4.294E+01  2.626E+00 -2.639E-01
   1    8    6     9     1    1.7521E+01  0.0000E+00   1.7521E+01  0.000E+00  0.000E+00  0.000E+00  1.08192E+03  3.173E+00  4.000E+00  0.000E+00  2.058E+00
   1    8    5     9     2    1.7521E+01  0.0000E+00   1.7521E+01  0.000E+00  0.000E+00  0.000E+00  1.08142E+03  3.173E+00  4.000E+00  0.000E+00  2.058E+00



 UBDSV3 SAVING "           GW ET" ON UNIT  61 AT TIME STEP 5, STRESS PERIOD 7
 UBDSV3 SAVING "    UZF RECHARGE" ON UNIT  61 AT TIME STEP 5, STRESS PERIOD 7
 UBDSV3 SAVING " SURFACE LEAKAGE" ON UNIT  61 AT TIME STEP 5, STRESS PERIOD 7
 UBDSV3 SAVING "       HORT+DUNN" ON UNIT  61 AT TIME STEP 5, STRESS PERIOD 7
 UBDSV3 SAVING "  STORAGE CHANGE" ON UNIT  61 AT TIME STEP 5, STRESS PERIOD 7


UNSATURATED ZONE PACKAGE VOLUMETRIC BUDGET FOR  TIME STEP     5 STRESS PERIOD    7
  ------------------------------------------------------------------------------



     CUMULATIVE VOLUMES      L**3       RATES FOR THIS TIME STEP      L**3/T
     ------------------                 ------------------------

           IN:                                      IN:
           ---                                      ---
        INFILTRATION =    52093779.6654          INFILTRATION =          18.3689

          OUT:                                     OUT:
          ----                                     ----
              UZF ET =    50716614.5486                UZF ET =          23.3175
        UZF RECHARGE =       73224.0000          UZF RECHARGE =       0.0000E+00

            IN - OUT =     1303941.1168              IN - OUT =          -4.9486

          STORAGE:                                 STORAGE:
          --------                                 --------
      STORAGE CHANGE =     1304155.4981        STORAGE CHANGE =          -4.9486

 PERCENT DISCREPANCY IS DIFFERENCE BETWEEN IN-OUT MINUS CHANGE IN STORAGE
 DIVIDED BY THE AVERAGE OF IN AND OUT TIMES 100

 PERCENT DISCREPANCY =          -0.00     PERCENT DISCREPANCY =           0.00






 

            AG WELLS      PERIOD    7   STEP   5
 AG WELL      1   LAYER   1   ROW     6   COL     4   RATE     0.00000    
 AG WELL      2   LAYER   1   ROW     6   COL     5   RATE     0.00000    
 AG WELL      3   LAYER   1   ROW     7   COL     4   RATE     0.00000    
 AG WELL      4   LAYER   1   ROW     7   COL     5   RATE     0.00000    
 AG WELL      5   LAYER   1   ROW     8   COL     4   RATE     0.00000    
 AG WELL      6   LAYER   1   ROW     8   COL     5   RATE     0.00000    
 
 

   DIVERSION SEGMENTS     PERIOD    7   STEP   5
 SEGMENT      9   RATE     17.5210    
 
 

        SW IRRIGATION     PERIOD    7   STEP   5
 SEGMENT      9   ROW     6   COL     4   RATE     2.92023    
 SEGMENT      9   ROW     6   COL     5   RATE     2.92023    
 SEGMENT      9   ROW     7   COL     4   RATE     2.92023    
 SEGMENT      9   ROW     7   COL     5   RATE     2.92023    
 SEGMENT      9   ROW     8   COL     4   RATE     2.92023    
 SEGMENT      9   ROW     8   COL     5   RATE     2.92023    
 
 

        GW IRRIGATION     PERIOD    7   STEP   5
 AG WELL      1   ROW     6   COL     4   RATE     0.00000    
 AG WELL      2   ROW     6   COL     5   RATE     0.00000    
 AG WELL      3   ROW     7   COL     4   RATE     0.00000    
 AG WELL      4   ROW     7   COL     5   RATE     0.00000    
 AG WELL      5   ROW     8   COL     4   RATE     0.00000    
 AG WELL      6   ROW     8   COL     5   RATE     0.00000    
 
1
  VOLUMETRIC BUDGET FOR AGRICULTURAL FIELDS AT  END OF TIME STEP    5, STRESS PERIOD   7
  ------------------------------------------------------------------------------

     CUMULATIVE VOLUMES      L**3       RATES FOR THIS TIME STEP      L**3/T
     ------------------                 ------------------------

           IN:                                      IN:
           ---                                      ---
               AG WELLS  =     3996307.5000                 AG WELLS  =           0.0000
      DIVERSION SEGMENTS =    36524172.0000        DIVERSION SEGMENTS =          17.5210
       IRRIGATION PONDS  =           0.0000         IRRIGATION PONDS  =           0.0000
           GW IRRIGATION =           0.0000             GW IRRIGATION =           0.0000
           SW IRRIGATION =           0.0000             SW IRRIGATION =           0.0000
        SYSTEM LOSSES GW =           0.0000          SYSTEM LOSSES GW =           0.0000
        SYSTEM LOSSES SW =           0.0000          SYSTEM LOSSES SW =           0.0000

                TOTAL IN =    40520480.0000                  TOTAL IN =          17.5210

          OUT:                                     OUT:
          ----                                     ----
               AG WELLS  =           0.0000                 AG WELLS  =           0.0000
      DIVERSION SEGMENTS =           0.0000        DIVERSION SEGMENTS =           0.0000
       IRRIGATION PONDS  =           0.0000         IRRIGATION PONDS  =           0.0000
           GW IRRIGATION =     3996307.5000             GW IRRIGATION =           0.0000
           SW IRRIGATION =    36524912.0000             SW IRRIGATION =          17.5214
        SYSTEM LOSSES GW =           0.0000          SYSTEM LOSSES GW =           0.0000
        SYSTEM LOSSES SW =           0.0000          SYSTEM LOSSES SW =           0.0000

               TOTAL OUT =    40521220.0000                 TOTAL OUT =          17.5214

                IN - OUT =        -740.0000                  IN - OUT =      -3.5095E-04

     PERCENT DISCREPANCY =          -0.00         PERCENT DISCREPANCY =          -0.00



1
  VOLUMETRIC BUDGET FOR ENTIRE MODEL AT END OF TIME STEP    5, STRESS PERIOD   7
  ------------------------------------------------------------------------------

     CUMULATIVE VOLUMES      L**3       RATES FOR THIS TIME STEP      L**3/T
     ------------------                 ------------------------

           IN:                                      IN:
           ---                                      ---
             STORAGE     =    12610408.0000               STORAGE     =           1.5553
       CONSTANT HEAD     =           0.0000         CONSTANT HEAD     =           0.0000
     HEAD DEP BOUNDS     =     3936391.0000       HEAD DEP BOUNDS     =           0.2879
      STREAM LEAKAGE     =   161570848.0000        STREAM LEAKAGE     =          12.1472
        UZF RECHARGE     =       73223.9531          UZF RECHARGE     =           0.0000
               GW ET     =           0.0000                 GW ET     =           0.0000
     SURFACE LEAKAGE     =           0.0000       SURFACE LEAKAGE     =           0.0000
           AG WELLS      =           0.0000             AG WELLS      =           0.0000

                TOTAL IN =   178190864.0000                  TOTAL IN =          13.9904

          OUT:                                     OUT:
          ----                                     ----
             STORAGE     =    30918256.0000               STORAGE     =           2.6851
       CONSTANT HEAD     =           0.0000         CONSTANT HEAD     =           0.0000
     HEAD DEP BOUNDS     =     3945395.0000       HEAD DEP BOUNDS     =           0.2899
      STREAM LEAKAGE     =   139334352.0000        STREAM LEAKAGE     =          11.0150
        UZF RECHARGE     =           0.0000          UZF RECHARGE     =           0.0000
               GW ET     =           0.0000                 GW ET     =           0.0000
     SURFACE LEAKAGE     =           0.0000       SURFACE LEAKAGE     =           0.0000
           AG WELLS      =     3996307.5000             AG WELLS      =           0.0000

               TOTAL OUT =   178194304.0000                 TOTAL OUT =          13.9900

                IN - OUT =       -3440.0000                  IN - OUT =       3.8433E-04

     PERCENT DISCREPANCY =          -0.00         PERCENT DISCREPANCY =           0.00






         TIME SUMMARY AT END OF TIME STEP    5 IN STRESS PERIOD    7
                    SECONDS     MINUTES      HOURS       DAYS        YEARS
                    -----------------------------------------------------------
   TIME STEP LENGTH  87667.      1461.1      24.352      1.0147     2.77799E-03
 STRESS PERIOD TIME 4.38333E+05  7305.6      121.76      5.0733     1.38899E-02
         TOTAL TIME 1.36747E+07 2.27912E+05  3798.5      158.27     0.43333    
1
 
 SOLVING FOR HEAD 
                                                   Max.-Head-Change                         Max.-Flux-Residual
  Residual-Control   Outer-Iter.   Inner-Iter.     Column Row Layer    Maximum-Head-Change  Column Row Layer    Maximum-Flux-Residual          L2-NORM 
          0                 1           2             5    6     1       0.4335169770E-02       5    6    1         0.2350252448E+00      0.6728014160E+00
          0                 2           2             5    6     1      -0.1049229353E-02       5    6    1        -0.5800256934E-01      0.1379455790E+00
          0                 3           2             4    7     1      -0.3011476135E-01       4    7    1        -0.1616456013E+01      0.3976912437E+01
          0                 4           2             4    7     1       0.3077354224E-01       4    7    1         0.1697976496E+01      0.4159106564E+01
          0                 5           2             4    7     1      -0.5581642260E-03       5    8    1        -0.3167602262E-01      0.7797390910E-01
          0                 6           2             4    7     1       0.1776581756E-03       5    8    1         0.1035602442E-01      0.2583848573E-01
          0                 7           1             4    7     1      -0.7352364590E-04       4    7    1        -0.4404436911E-02      0.1235064776E-01

    ------------------------------------------------
       NWT REQUIRED            7 OUTER ITERATIONS 
       AND A TOTAL OF         13 INNER ITERATIONS.
    ------------------------------------------------

 NO OUTPUT CONTROL FOR STRESS PERIOD    7   TIME STEP    6
 
 SOLVING FOR HEAD 
                                                   Max.-Head-Change                         Max.-Flux-Residual
  Residual-Control   Outer-Iter.   Inner-Iter.     Column Row Layer    Maximum-Head-Change  Column Row Layer    Maximum-Flux-Residual          L2-NORM 
          0                 1           2             5    6     1       0.4173655500E-02       5    6    1         0.2260378050E+00      0.6627580118E+00
          0                 2           2             4    7     1      -0.3571772094E-01       5    6    1        -0.1931509901E+01      0.4740014418E+01
          0                 3           2             4    7     1      -0.2979332963E+00       4    7    1        -0.1599182761E+02      0.3917409567E+02
          0                 4           2             4    7     1       0.6481056340E-01       4    7    1         0.3576062127E+01      0.8756192378E+01
          0                 5           2             4    7     1      -0.2579511089E-02       4    7    1        -0.1462929502E+00      0.3582070711E+00
          0                 6           1             4    7     1       0.3183006038E-04       4    7    1         0.1855056521E-02      0.4556760705E-02

    ------------------------------------------------
       NWT REQUIRED            6 OUTER ITERATIONS 
       AND A TOTAL OF         11 INNER ITERATIONS.
    ------------------------------------------------

 NO OUTPUT CONTROL FOR STRESS PERIOD    7   TIME STEP    7
 
 SOLVING FOR HEAD 
                                                   Max.-Head-Change                         Max.-Flux-Residual
  Residual-Control   Outer-Iter.   Inner-Iter.     Column Row Layer    Maximum-Head-Change  Column Row Layer    Maximum-Flux-Residual          L2-NORM 
          0                 1           2             5    6     1       0.1199005314E-01       5    6    1         0.6554036438E+00      0.1471584217E+01
          0                 2           2             7   13     1      -0.2339068585E-02       7   13    1        -0.1297370486E+00      0.1946811676E+00
          0                 3           2             4    7     1      -0.6984268921E-01       4    7    1        -0.3748894215E+01      0.9219576289E+01
          0                 4           2             4    7     1       0.7272126863E-01       4    7    1         0.4012462667E+01      0.9828425416E+01
          0                 5           2             4    7     1      -0.2894366594E-02       5    8    1        -0.1642000970E+00      0.4021877344E+00
          0                 6           1             4    7     1       0.3571523764E-04       5    8    1         0.2083040056E-02      0.5103072946E-02

    ------------------------------------------------
       NWT REQUIRED            6 OUTER ITERATIONS 
       AND A TOTAL OF         11 INNER ITERATIONS.
    ------------------------------------------------

 NO OUTPUT CONTROL FOR STRESS PERIOD    7   TIME STEP    8
 
 SOLVING FOR HEAD 
                                                   Max.-Head-Change                         Max.-Flux-Residual
  Residual-Control   Outer-Iter.   Inner-Iter.     Column Row Layer    Maximum-Head-Change  Column Row Layer    Maximum-Flux-Residual          L2-NORM 
          0                 1           2             5    6     1       0.1141077890E-01       5    6    1         0.6231634067E+00      0.1423715775E+01
          0                 2           2             7   13     1      -0.2340879018E-02       7   13    1        -0.1298357939E+00      0.1910138890E+00
          0                 3           2             7   13     1       0.1593614116E-03       7   13    1         0.9086064649E-02      0.1334335049E-01
          0                 4           1             7   13     1      -0.6338797885E-05       7   13    1        -0.3714871586E-03      0.5438549249E-03

    ------------------------------------------------
       NWT REQUIRED            4 OUTER ITERATIONS 
       AND A TOTAL OF          7 INNER ITERATIONS.
    ------------------------------------------------

 NO OUTPUT CONTROL FOR STRESS PERIOD    7   TIME STEP    9
 
 SOLVING FOR HEAD 
                                                   Max.-Head-Change                         Max.-Flux-Residual
  Residual-Control   Outer-Iter.   Inner-Iter.     Column Row Layer    Maximum-Head-Change  Column Row Layer    Maximum-Flux-Residual          L2-NORM 
          0                 1           2             5    6     1       0.1086928299E-01       5    6    1         0.5930450550E+00      0.1354656286E+01
          0                 2           2             4    7     1      -0.7011314101E-01       5    6    1        -0.3804304612E+01      0.9321470177E+01
          0                 3           2             4    7     1       0.7264780805E-01       5    6    1         0.4011269926E+01      0.9822870373E+01
          0                 4           2             4    7     1      -0.2890757094E-02       5    8    1        -0.1640193888E+00      0.4017223838E+00
          0                 5           1             4    7     1       0.3564423464E-04       4    7    1         0.2077338126E-02      0.5099190092E-02

    ------------------------------------------------
       NWT REQUIRED            5 OUTER ITERATIONS 
       AND A TOTAL OF          9 INNER ITERATIONS.
    ------------------------------------------------

 OUTPUT CONTROL FOR STRESS PERIOD    7   TIME STEP   10
    PRINT BUDGET
    SAVE BUDGET
 UBDSV1 SAVING "         STORAGE" ON UNIT 102 AT TIME STEP 10, STRESS PERIOD 7
 UBDSV2 SAVING "   CONSTANT HEAD" ON UNIT 102 AT TIME STEP 10, STRESS PERIOD 7
 UBDSV1 SAVING "FLOW RIGHT FACE " ON UNIT 102 AT TIME STEP 10, STRESS PERIOD 7
 UBDSV1 SAVING "FLOW FRONT FACE " ON UNIT 102 AT TIME STEP 10, STRESS PERIOD 7

  HEAD DEP BOUNDS   PERIOD    7   STEP    10
 BOUNDARY      1   LAYER   1   ROW    13   COL     1   RATE   -0.289570    
 BOUNDARY      2   LAYER   1   ROW    14   COL     9   RATE    0.287939    



 STREAM LISTING     PERIOD      7   STEP       10

 LAYER ROW COL. STREAM  RCH.  FLOW INTO     FLOW TO   FLOW OUT OF   OVRLND.     DIRECT     STREAM       STREAM     STREAM     STREAM   STREAMBED  STREAMBED
                SEG.NO.  NO.  STRM. RCH.    AQUIFER    STRM. RCH.    RUNOFF     PRECIP       ET          HEAD       DEPTH      WIDTH   CONDCTNC.   GRADIENT

   1    1    1     1     1    3.1125E+01  2.7165E-01   3.0853E+01  0.000E+00  0.000E+00  0.000E+00  1.09431E+03  1.259E+00  1.417E+01  6.378E-02  1.420E+00
   1    2    2     1     2    3.0853E+01  4.2045E-01   3.0433E+01  0.000E+00  0.000E+00  0.000E+00  1.08931E+03  1.256E+00  1.411E+01  9.879E-02  1.419E+00
   1    3    3     1     3    3.0433E+01  3.5834E-01   3.0075E+01  0.000E+00  0.000E+00  0.000E+00  1.08367E+03  1.252E+00  1.404E+01  8.427E-02  1.417E+00
   1    3    4     1     4    3.0075E+01  3.2976E-01   2.9745E+01  0.000E+00  0.000E+00  0.000E+00  1.07866E+03  1.249E+00  1.398E+01  7.761E-02  1.416E+00
   1    4    5     2     1    2.7745E+01  3.3390E-01   2.7411E+01  0.000E+00  0.000E+00  0.000E+00  1.07321E+03  1.281E+00  1.200E+01  7.800E-02  1.427E+00
   1    5    6     2     2    2.7411E+01  2.5635E-01   2.7155E+01  0.000E+00  0.000E+00  0.000E+00  1.06778E+03  1.273E+00  1.200E+01  6.000E-02  1.424E+00
   1    6    6     2     3    2.7155E+01  2.5592E-01   2.6899E+01  0.000E+00  0.000E+00  0.000E+00  1.06306E+03  1.265E+00  1.200E+01  6.000E-02  1.422E+00
   1    7    6     2     4    2.6899E+01  2.5549E-01   2.6643E+01  0.000E+00  0.000E+00  0.000E+00  1.05833E+03  1.258E+00  1.200E+01  6.000E-02  1.419E+00
   1    8    6     2     5    2.6643E+01  2.5506E-01   2.6388E+01  0.000E+00  0.000E+00  0.000E+00  1.05361E+03  1.251E+00  1.200E+01  6.000E-02  1.417E+00
   1    3    5     3     1    2.0000E+00  2.8252E-01   1.7175E+00  0.000E+00  0.000E+00  0.000E+00  1.07555E+03  1.909E+00  9.636E+00  7.227E-02  1.955E+00
   1    3    6     3     2    1.7175E+00  2.4905E-01   1.4684E+00  0.000E+00  0.000E+00  0.000E+00  1.07264E+03  1.727E+00  8.909E+00  6.682E-02  1.864E+00
   1    3    7     3     3    1.4684E+00  1.9718E-01   1.2712E+00  0.000E+00  0.000E+00  0.000E+00  1.06987E+03  1.555E+00  8.218E+00  5.547E-02  1.777E+00
   1    4    8     3     4    1.2712E+00  2.2567E-01   1.0456E+00  0.000E+00  0.000E+00  0.000E+00  1.06682E+03  1.364E+00  7.455E+00  6.709E-02  1.682E+00
   1    5    8     3     5    1.0456E+00  1.5790E-01   8.8768E-01  0.000E+00  0.000E+00  0.000E+00  1.06362E+03  1.164E+00  6.655E+00  4.991E-02  1.582E+00
   1    6    8     3     6    8.8768E-01  5.5980E-02   8.3170E-01  0.000E+00  0.000E+00  0.000E+00  1.06158E+03  1.036E+00  6.145E+00  1.844E-02  1.518E+00
   1    5   10     4     1    1.0000E+01  9.0919E-02   9.9091E+00  0.000E+00  0.000E+00  0.000E+00  1.07836E+03  6.368E-01  1.000E+01  2.500E-02  1.212E+00
   1    5    9     4     2    9.9091E+00  1.8158E-01   9.7275E+00  0.000E+00  0.000E+00  0.000E+00  1.07154E+03  6.315E-01  1.000E+01  5.000E-02  1.211E+00
   1    6    8     4     3    9.7275E+00  1.2689E-01   9.6006E+00  0.000E+00  0.000E+00  0.000E+00  1.06381E+03  6.256E-01  1.000E+01  3.500E-02  1.209E+00
   1    6    8     5     1    1.0432E+01  2.2686E-01   1.0205E+01  0.000E+00  0.000E+00  0.000E+00  1.05868E+03  6.790E-01  1.542E+01  6.166E-02  1.226E+00
   1    7    7     5     2    1.0205E+01  2.7894E-01   9.9265E+00  0.000E+00  0.000E+00  0.000E+00  1.05417E+03  6.732E-01  1.519E+01  7.594E-02  1.224E+00
   1    8    7     5     3    9.9265E+00  1.9221E-01   9.7343E+00  0.000E+00  0.000E+00  0.000E+00  1.04992E+03  6.676E-01  1.497E+01  5.241E-02  1.223E+00
   1    8    6     5     4    9.7343E+00  1.3577E-01   9.5985E+00  0.000E+00  0.000E+00  0.000E+00  1.04691E+03  6.637E-01  1.482E+01  3.706E-02  1.221E+00
   1    9    6     6     1    1.3517E+01  2.3040E-01   1.3286E+01  0.000E+00  0.000E+00  0.000E+00  1.04357E+03  8.400E-01  1.200E+01  6.000E-02  1.280E+00
   1   10    7     6     2    1.3286E+01  2.2988E-01   1.3056E+01  0.000E+00  0.000E+00  0.000E+00  1.03901E+03  8.313E-01  1.200E+01  6.000E-02  1.277E+00
   1   11    7     6     3    1.3056E+01  2.2935E-01   1.2827E+01  0.000E+00  0.000E+00  0.000E+00  1.03446E+03  8.226E-01  1.200E+01  6.000E-02  1.274E+00
   1   12    7     6     4    1.2827E+01  2.2883E-01   1.2598E+01  0.000E+00  0.000E+00  0.000E+00  1.02990E+03  8.138E-01  1.200E+01  6.000E-02  1.271E+00
   1   13    7     6     5    1.2598E+01 -3.4287E-02   1.2633E+01  0.000E+00  0.000E+00  0.000E+00  1.02672E+03  8.100E-01  1.200E+01  2.400E-01 -4.762E-02
   1   14    9     7     1    1.5000E+02  1.3678E+00   1.4863E+02  0.000E+00  0.000E+00  0.000E+00  1.03987E+03  2.288E+00  5.529E+01  5.593E-01  8.152E-01
   1   13    8     7     2    1.4863E+02  1.9153E+00   1.4672E+02  0.000E+00  0.000E+00  0.000E+00  1.03478E+03  2.279E+00  5.526E+01  6.148E-01  1.038E+00
   1   13    7     7     3    1.4672E+02  1.5786E+00   1.4514E+02  0.000E+00  0.000E+00  0.000E+00  1.02969E+03  2.270E+00  5.521E+01  5.584E-01  9.423E-01
   1   13    6     8     1    1.5777E+02  9.4626E-01   1.5682E+02  0.000E+00  0.000E+00  0.000E+00  1.02474E+03  2.867E+00  4.158E+01  4.237E-01  7.444E-01
   1   13    5     8     2    1.5682E+02  2.0041E-01   1.5662E+02  0.000E+00  0.000E+00  0.000E+00  1.01849E+03  2.864E+00  4.152E+01  4.231E-01  1.579E-01
   1   13    4     8     3    1.5662E+02 -2.5097E+00   1.5913E+02  0.000E+00  0.000E+00  0.000E+00  1.01225E+03  2.871E+00  4.164E+01  4.243E+00 -1.972E-01
   1   13    3     8     4    1.5913E+02 -3.7792E+00   1.6291E+02  0.000E+00  0.000E+00  0.000E+00  1.00602E+03  2.893E+00  4.194E+01  4.274E+00 -2.947E-01
   1   13    2     8     5    1.6291E+02 -2.7970E+00   1.6571E+02  0.000E+00  0.000E+00  0.000E+00  9.99790E+02  2.915E+00  4.226E+01  4.307E+00 -2.165E-01
   1   13    1     8     6    1.6571E+02 -2.1158E+00   1.6783E+02  0.000E+00  0.000E+00  0.000E+00  9.94806E+02  2.931E+00  4.250E+01  2.599E+00 -2.714E-01
   1    8    6     9     1    2.2470E+01  0.0000E+00   2.2470E+01  0.000E+00  0.000E+00  0.000E+00  1.08243E+03  3.683E+00  4.000E+00  0.000E+00  2.228E+00
   1    8    5     9     2    2.2470E+01  0.0000E+00   2.2470E+01  0.000E+00  0.000E+00  0.000E+00  1.08193E+03  3.683E+00  4.000E+00  0.000E+00  2.228E+00



 UBDSV3 SAVING "           GW ET" ON UNIT  61 AT TIME STEP 10, STRESS PERIOD 7
 UBDSV3 SAVING "    UZF RECHARGE" ON UNIT  61 AT TIME STEP 10, STRESS PERIOD 7
 UBDSV3 SAVING " SURFACE LEAKAGE" ON UNIT  61 AT TIME STEP 10, STRESS PERIOD 7
 UBDSV3 SAVING "       HORT+DUNN" ON UNIT  61 AT TIME STEP 10, STRESS PERIOD 7
 UBDSV3 SAVING "  STORAGE CHANGE" ON UNIT  61 AT TIME STEP 10, STRESS PERIOD 7


UNSATURATED ZONE PACKAGE VOLUMETRIC BUDGET FOR  TIME STEP    10 STRESS PERIOD    7
  ------------------------------------------------------------------------------



     CUMULATIVE VOLUMES      L**3       RATES FOR THIS TIME STEP      L**3/T
     ------------------                 ------------------------

           IN:                                      IN:
           ---                                      ---
        INFILTRATION =    67881145.8746          INFILTRATION =          23.3179

          OUT:                                     OUT:
          ----                                     ----
              UZF ET =    63152584.3405                UZF ET =          23.3175
        UZF RECHARGE =       73224.0000          UZF RECHARGE =       0.0000E+00

            IN - OUT =     4655337.5341              IN - OUT =       4.4918E-04

          STORAGE:                                 STORAGE:
          --------                                 --------
      STORAGE CHANGE =     4655642.0440        STORAGE CHANGE =       4.4978E-04

 PERCENT DISCREPANCY IS DIFFERENCE BETWEEN IN-OUT MINUS CHANGE IN STORAGE
 DIVIDED BY THE AVERAGE OF IN AND OUT TIMES 100

 PERCENT DISCREPANCY =          -0.00     PERCENT DISCREPANCY =           0.00






 

            AG WELLS      PERIOD    7   STEP  10
 AG WELL      1   LAYER   1   ROW     6   COL     4   RATE     0.00000    
 AG WELL      2   LAYER   1   ROW     6   COL     5   RATE     0.00000    
 AG WELL      3   LAYER   1   ROW     7   COL     4   RATE     0.00000    
 AG WELL      4   LAYER   1   ROW     7   COL     5   RATE     0.00000    
 AG WELL      5   LAYER   1   ROW     8   COL     4   RATE     0.00000    
 AG WELL      6   LAYER   1   ROW     8   COL     5   RATE     0.00000    
 
 

   DIVERSION SEGMENTS     PERIOD    7   STEP  10
 SEGMENT      9   RATE     22.4700    
 
 

        SW IRRIGATION     PERIOD    7   STEP  10
 SEGMENT      9   ROW     6   COL     4   RATE     3.74508    
 SEGMENT      9   ROW     6   COL     5   RATE     3.74508    
 SEGMENT      9   ROW     7   COL     4   RATE     3.74508    
 SEGMENT      9   ROW     7   COL     5   RATE     3.74508    
 SEGMENT      9   ROW     8   COL     4   RATE     3.74508    
 SEGMENT      9   ROW     8   COL     5   RATE     3.74508    
 
 

        GW IRRIGATION     PERIOD    7   STEP  10
 AG WELL      1   ROW     6   COL     4   RATE     0.00000    
 AG WELL      2   ROW     6   COL     5   RATE     0.00000    
 AG WELL      3   ROW     7   COL     4   RATE     0.00000    
 AG WELL      4   ROW     7   COL     5   RATE     0.00000    
 AG WELL      5   ROW     8   COL     4   RATE     0.00000    
 AG WELL      6   ROW     8   COL     5   RATE     0.00000    
 
1
  VOLUMETRIC BUDGET FOR AGRICULTURAL FIELDS AT  END OF TIME STEP   10, STRESS PERIOD   7
  ------------------------------------------------------------------------------

     CUMULATIVE VOLUMES      L**3       RATES FOR THIS TIME STEP      L**3/T
     ------------------                 ------------------------

           IN:                                      IN:
           ---                                      ---
               AG WELLS  =    12204165.0000                 AG WELLS  =           0.0000
      DIVERSION SEGMENTS =    43745672.0000        DIVERSION SEGMENTS =          22.4700
       IRRIGATION PONDS  =           0.0000         IRRIGATION PONDS  =           0.0000
           GW IRRIGATION =           0.0000             GW IRRIGATION =           0.0000
           SW IRRIGATION =           0.0000             SW IRRIGATION =           0.0000
        SYSTEM LOSSES GW =           0.0000          SYSTEM LOSSES GW =           0.0000
        SYSTEM LOSSES SW =           0.0000          SYSTEM LOSSES SW =           0.0000

                TOTAL IN =    55949836.0000                  TOTAL IN =          22.4700

          OUT:                                     OUT:
          ----                                     ----
               AG WELLS  =           0.0000                 AG WELLS  =           0.0000
      DIVERSION SEGMENTS =           0.0000        DIVERSION SEGMENTS =           0.0000
       IRRIGATION PONDS  =           0.0000         IRRIGATION PONDS  =           0.0000
           GW IRRIGATION =    12204165.0000             GW IRRIGATION =           0.0000
           SW IRRIGATION =    43746556.0000             SW IRRIGATION =          22.4704
        SYSTEM LOSSES GW =           0.0000          SYSTEM LOSSES GW =           0.0000
        SYSTEM LOSSES SW =           0.0000          SYSTEM LOSSES SW =           0.0000

               TOTAL OUT =    55950720.0000                 TOTAL OUT =          22.4704

                IN - OUT =        -884.0000                  IN - OUT =      -4.4823E-04

     PERCENT DISCREPANCY =          -0.00         PERCENT DISCREPANCY =          -0.00



1
  VOLUMETRIC BUDGET FOR ENTIRE MODEL AT END OF TIME STEP   10, STRESS PERIOD   7
  ------------------------------------------------------------------------------

     CUMULATIVE VOLUMES      L**3       RATES FOR THIS TIME STEP      L**3/T
     ------------------                 ------------------------

           IN:                                      IN:
           ---                                      ---
             STORAGE     =    21752462.0000               STORAGE     =           3.1143
       CONSTANT HEAD     =           0.0000         CONSTANT HEAD     =           0.0000
     HEAD DEP BOUNDS     =     4062603.7500       HEAD DEP BOUNDS     =           0.2879
      STREAM LEAKAGE     =   166901536.0000        STREAM LEAKAGE     =          12.0652
        UZF RECHARGE     =       73223.9531          UZF RECHARGE     =           0.0000
               GW ET     =           0.0000                 GW ET     =           0.0000
     SURFACE LEAKAGE     =           0.0000       SURFACE LEAKAGE     =           0.0000
           AG WELLS      =           0.0000             AG WELLS      =           0.0000

                TOTAL IN =   192789824.0000                  TOTAL IN =          15.4675

          OUT:                                     OUT:
          ----                                     ----
             STORAGE     =    32429812.0000               STORAGE     =           3.9418
       CONSTANT HEAD     =           0.0000         CONSTANT HEAD     =           0.0000
     HEAD DEP BOUNDS     =     4072371.5000       HEAD DEP BOUNDS     =           0.2896
      STREAM LEAKAGE     =   144086944.0000        STREAM LEAKAGE     =          11.2359
        UZF RECHARGE     =           0.0000          UZF RECHARGE     =           0.0000
               GW ET     =           0.0000                 GW ET     =           0.0000
     SURFACE LEAKAGE     =           0.0000       SURFACE LEAKAGE     =           0.0000
           AG WELLS      =    12204165.0000             AG WELLS      =           0.0000

               TOTAL OUT =   192793280.0000                 TOTAL OUT =          15.4673

                IN - OUT =       -3456.0000                  IN - OUT =       1.6975E-04

     PERCENT DISCREPANCY =          -0.00         PERCENT DISCREPANCY =           0.00






         TIME SUMMARY AT END OF TIME STEP   10 IN STRESS PERIOD    7
                    SECONDS     MINUTES      HOURS       DAYS        YEARS
                    -----------------------------------------------------------
   TIME STEP LENGTH  87667.      1461.1      24.352      1.0147     2.77799E-03
 STRESS PERIOD TIME 8.76667E+05  14611.      243.52      10.147     2.77799E-02
         TOTAL TIME 1.41131E+07 2.35218E+05  3920.3      163.35     0.44722    
1
 
 SOLVING FOR HEAD 
                                                   Max.-Head-Change                         Max.-Flux-Residual
  Residual-Control   Outer-Iter.   Inner-Iter.     Column Row Layer    Maximum-Head-Change  Column Row Layer    Maximum-Flux-Residual          L2-NORM 
          0                 1           2             5    6     1       0.1036299787E-01       5    6    1         0.5649037071E+00      0.1322167780E+01
          0                 2           2             7   13     1      -0.2340191991E-02       7   13    1        -0.1297975437E+00      0.1835169933E+00
          0                 3           2             4    7     1      -0.6974665046E-01       4    7    1        -0.3743719954E+01      0.9208091070E+01
          0                 4           2             4    7     1       0.7262417741E-01       4    7    1         0.4007100294E+01      0.9815367963E+01
          0                 5           2             4    7     1      -0.2890502237E-02       5    8    1        -0.1639830368E+00      0.4016533135E+00
          0                 6           1             4    7     1       0.3566755349E-04       5    8    1         0.2080286316E-02      0.5096289669E-02

    ------------------------------------------------
       NWT REQUIRED            6 OUTER ITERATIONS 
       AND A TOTAL OF         11 INNER ITERATIONS.
    ------------------------------------------------

 NO OUTPUT CONTROL FOR STRESS PERIOD    7   TIME STEP   11
 
 SOLVING FOR HEAD 
                                                   Max.-Head-Change                         Max.-Flux-Residual
  Residual-Control   Outer-Iter.   Inner-Iter.     Column Row Layer    Maximum-Head-Change  Column Row Layer    Maximum-Flux-Residual          L2-NORM 
          0                 1           2             5    6     1       0.9889235763E-02       5    6    1         0.5385870708E+00      0.1288193530E+01
          0                 2           2             7   13     1      -0.2341986573E-02       7   13    1        -0.1298955066E+00      0.1810138229E+00
          0                 3           2             4    7     1      -0.6974586259E-01       4    7    1        -0.3743671976E+01      0.9208393692E+01
          0                 4           2             4    7     1       0.7262413505E-01       4    7    1         0.4007096455E+01      0.9815381519E+01
          0                 5           2             4    7     1      -0.2890500550E-02       5    8    1        -0.1639835680E+00      0.4016538367E+00
          0                 6           1             4    7     1       0.3566753266E-04       5    8    1         0.2080293004E-02      0.5096292516E-02

    ------------------------------------------------
       NWT REQUIRED            6 OUTER ITERATIONS 
       AND A TOTAL OF         11 INNER ITERATIONS.
    ------------------------------------------------

 NO OUTPUT CONTROL FOR STRESS PERIOD    7   TIME STEP   12
 
 SOLVING FOR HEAD 
                                                   Max.-Head-Change                         Max.-Flux-Residual
  Residual-Control   Outer-Iter.   Inner-Iter.     Column Row Layer    Maximum-Head-Change  Column Row Layer    Maximum-Flux-Residual          L2-NORM 
          0                 1           2             5    6     1       0.9445549183E-02       5    6    1         0.5139567832E+00      0.1258270911E+01
          0                 2           2             7   13     1      -0.2343753234E-02       7   13    1        -0.1299919956E+00      0.1788313874E+00
          0                 3           2             4    7     1      -0.6974516250E-01       4    7    1        -0.3743629072E+01      0.9208680084E+01
          0                 4           2             4    7     1       0.7262410126E-01       4    7    1         0.4007093210E+01      0.9815394714E+01
          0                 5           2             4    7     1      -0.2890499204E-02       5    8    1        -0.1639840725E+00      0.4016543168E+00
          0                 6           1             4    7     1       0.3566751563E-04       5    8    1         0.2080299374E-02      0.5096295259E-02

    ------------------------------------------------
       NWT REQUIRED            6 OUTER ITERATIONS 
       AND A TOTAL OF         11 INNER ITERATIONS.
    ------------------------------------------------

 NO OUTPUT CONTROL FOR STRESS PERIOD    7   TIME STEP   13
 
 SOLVING FOR HEAD 
                                                   Max.-Head-Change                         Max.-Flux-Residual
  Residual-Control   Outer-Iter.   Inner-Iter.     Column Row Layer    Maximum-Head-Change  Column Row Layer    Maximum-Flux-Residual          L2-NORM 
          0                 1           2             5    6     1       0.9030279344E-02       5    6    1         0.4909189263E+00      0.1231935298E+01
          0                 2           2             7   13     1      -0.2345503509E-02       7   13    1        -0.1300876685E+00      0.1769287821E+00
          0                 3           2             4    7     1      -0.6974454499E-01       4    7    1        -0.3743590943E+01      0.9208951294E+01
          0                 4           2             4    7     1       0.7262407578E-01       4    7    1         0.4007090538E+01      0.9815408152E+01
          0                 5           2             4    7     1      -0.2890498190E-02       5    8    1        -0.1639845530E+00      0.4016548450E+00
          0                 6           1             4    7     1       0.3566750353E-04       5    8    1         0.2080305440E-02      0.5096294232E-02

    ------------------------------------------------
       NWT REQUIRED            6 OUTER ITERATIONS 
       AND A TOTAL OF         11 INNER ITERATIONS.
    ------------------------------------------------

 NO OUTPUT CONTROL FOR STRESS PERIOD    7   TIME STEP   14
 
 SOLVING FOR HEAD 
                                                   Max.-Head-Change                         Max.-Flux-Residual
  Residual-Control   Outer-Iter.   Inner-Iter.     Column Row Layer    Maximum-Head-Change  Column Row Layer    Maximum-Flux-Residual          L2-NORM 
          0                 1           2             5    6     1       0.8640723094E-02       5    6    1         0.4693214161E+00      0.1208751451E+01
          0                 2           2             7   13     1      -0.2347241688E-02       7   13    1        -0.1301827584E+00      0.1752684108E+00
          0                 3           2             4    7     1      -0.6974399524E-01       4    7    1        -0.3743556777E+01      0.9209207473E+01
          0                 4           2             4    7     1       0.7262404909E-01       4    7    1         0.4007087905E+01      0.9815420347E+01
          0                 5           2             4    7     1      -0.2890497127E-02       5    8    1        -0.1639849918E+00      0.4016553130E+00
          0                 6           1             4    7     1       0.3566749032E-04       5    8    1         0.2080310983E-02      0.5096299199E-02

    ------------------------------------------------
       NWT REQUIRED            6 OUTER ITERATIONS 
       AND A TOTAL OF         11 INNER ITERATIONS.
    ------------------------------------------------

 OUTPUT CONTROL FOR STRESS PERIOD    7   TIME STEP   15
    PRINT BUDGET
    SAVE BUDGET
 UBDSV1 SAVING "         STORAGE" ON UNIT 102 AT TIME STEP 15, STRESS PERIOD 7
 UBDSV2 SAVING "   CONSTANT HEAD" ON UNIT 102 AT TIME STEP 15, STRESS PERIOD 7
 UBDSV1 SAVING "FLOW RIGHT FACE " ON UNIT 102 AT TIME STEP 15, STRESS PERIOD 7
 UBDSV1 SAVING "FLOW FRONT FACE " ON UNIT 102 AT TIME STEP 15, STRESS PERIOD 7

  HEAD DEP BOUNDS   PERIOD    7   STEP    15
 BOUNDARY      1   LAYER   1   ROW    13   COL     1   RATE   -0.289118    
 BOUNDARY      2   LAYER   1   ROW    14   COL     9   RATE    0.287942    



 STREAM LISTING     PERIOD      7   STEP       15

 LAYER ROW COL. STREAM  RCH.  FLOW INTO     FLOW TO   FLOW OUT OF   OVRLND.     DIRECT     STREAM       STREAM     STREAM     STREAM   STREAMBED  STREAMBED
                SEG.NO.  NO.  STRM. RCH.    AQUIFER    STRM. RCH.    RUNOFF     PRECIP       ET          HEAD       DEPTH      WIDTH   CONDCTNC.   GRADIENT

   1    1    1     1     1    3.1125E+01  2.7165E-01   3.0853E+01  0.000E+00  0.000E+00  0.000E+00  1.09431E+03  1.259E+00  1.417E+01  6.378E-02  1.420E+00
   1    2    2     1     2    3.0853E+01  4.2045E-01   3.0433E+01  0.000E+00  0.000E+00  0.000E+00  1.08931E+03  1.256E+00  1.411E+01  9.879E-02  1.419E+00
   1    3    3     1     3    3.0433E+01  3.5834E-01   3.0075E+01  0.000E+00  0.000E+00  0.000E+00  1.08367E+03  1.252E+00  1.404E+01  8.427E-02  1.417E+00
   1    3    4     1     4    3.0075E+01  3.2976E-01   2.9745E+01  0.000E+00  0.000E+00  0.000E+00  1.07866E+03  1.249E+00  1.398E+01  7.761E-02  1.416E+00
   1    4    5     2     1    2.7745E+01  3.3390E-01   2.7411E+01  0.000E+00  0.000E+00  0.000E+00  1.07321E+03  1.281E+00  1.200E+01  7.800E-02  1.427E+00
   1    5    6     2     2    2.7411E+01  2.5635E-01   2.7155E+01  0.000E+00  0.000E+00  0.000E+00  1.06778E+03  1.273E+00  1.200E+01  6.000E-02  1.424E+00
   1    6    6     2     3    2.7155E+01  2.5592E-01   2.6899E+01  0.000E+00  0.000E+00  0.000E+00  1.06306E+03  1.265E+00  1.200E+01  6.000E-02  1.422E+00
   1    7    6     2     4    2.6899E+01  2.5549E-01   2.6643E+01  0.000E+00  0.000E+00  0.000E+00  1.05833E+03  1.258E+00  1.200E+01  6.000E-02  1.419E+00
   1    8    6     2     5    2.6643E+01  2.5506E-01   2.6388E+01  0.000E+00  0.000E+00  0.000E+00  1.05361E+03  1.251E+00  1.200E+01  6.000E-02  1.417E+00
   1    3    5     3     1    2.0000E+00  2.8252E-01   1.7175E+00  0.000E+00  0.000E+00  0.000E+00  1.07555E+03  1.909E+00  9.636E+00  7.227E-02  1.955E+00
   1    3    6     3     2    1.7175E+00  2.4905E-01   1.4684E+00  0.000E+00  0.000E+00  0.000E+00  1.07264E+03  1.727E+00  8.909E+00  6.682E-02  1.864E+00
   1    3    7     3     3    1.4684E+00  1.9718E-01   1.2712E+00  0.000E+00  0.000E+00  0.000E+00  1.06987E+03  1.555E+00  8.218E+00  5.547E-02  1.777E+00
   1    4    8     3     4    1.2712E+00  2.2567E-01   1.0456E+00  0.000E+00  0.000E+00  0.000E+00  1.06682E+03  1.364E+00  7.455E+00  6.709E-02  1.682E+00
   1    5    8     3     5    1.0456E+00  1.5790E-01   8.8768E-01  0.000E+00  0.000E+00  0.000E+00  1.06362E+03  1.164E+00  6.655E+00  4.991E-02  1.582E+00
   1    6    8     3     6    8.8768E-01  5.5980E-02   8.3170E-01  0.000E+00  0.000E+00  0.000E+00  1.06158E+03  1.036E+00  6.145E+00  1.844E-02  1.518E+00
   1    5   10     4     1    1.0000E+01  9.0919E-02   9.9091E+00  0.000E+00  0.000E+00  0.000E+00  1.07836E+03  6.368E-01  1.000E+01  2.500E-02  1.212E+00
   1    5    9     4     2    9.9091E+00  1.8158E-01   9.7275E+00  0.000E+00  0.000E+00  0.000E+00  1.07154E+03  6.315E-01  1.000E+01  5.000E-02  1.211E+00
   1    6    8     4     3    9.7275E+00  1.2689E-01   9.6006E+00  0.000E+00  0.000E+00  0.000E+00  1.06381E+03  6.256E-01  1.000E+01  3.500E-02  1.209E+00
   1    6    8     5     1    1.0432E+01  2.2686E-01   1.0205E+01  0.000E+00  0.000E+00  0.000E+00  1.05868E+03  6.790E-01  1.542E+01  6.166E-02  1.226E+00
   1    7    7     5     2    1.0205E+01  2.7894E-01   9.9265E+00  0.000E+00  0.000E+00  0.000E+00  1.05417E+03  6.732E-01  1.519E+01  7.594E-02  1.224E+00
   1    8    7     5     3    9.9265E+00  1.9221E-01   9.7343E+00  0.000E+00  0.000E+00  0.000E+00  1.04992E+03  6.676E-01  1.497E+01  5.241E-02  1.223E+00
   1    8    6     5     4    9.7343E+00  1.3577E-01   9.5985E+00  0.000E+00  0.000E+00  0.000E+00  1.04691E+03  6.637E-01  1.482E+01  3.706E-02  1.221E+00
   1    9    6     6     1    1.3517E+01  2.3040E-01   1.3286E+01  0.000E+00  0.000E+00  0.000E+00  1.04357E+03  8.400E-01  1.200E+01  6.000E-02  1.280E+00
   1   10    7     6     2    1.3286E+01  2.2988E-01   1.3056E+01  0.000E+00  0.000E+00  0.000E+00  1.03901E+03  8.313E-01  1.200E+01  6.000E-02  1.277E+00
   1   11    7     6     3    1.3056E+01  2.2935E-01   1.2827E+01  0.000E+00  0.000E+00  0.000E+00  1.03446E+03  8.226E-01  1.200E+01  6.000E-02  1.274E+00
   1   12    7     6     4    1.2827E+01  2.2883E-01   1.2598E+01  0.000E+00  0.000E+00  0.000E+00  1.02990E+03  8.138E-01  1.200E+01  6.000E-02  1.271E+00
   1   13    7     6     5    1.2598E+01 -3.3896E-02   1.2632E+01  0.000E+00  0.000E+00  0.000E+00  1.02672E+03  8.100E-01  1.200E+01  2.400E-01 -4.708E-02
   1   14    9     7     1    1.5000E+02  1.3679E+00   1.4863E+02  0.000E+00  0.000E+00  0.000E+00  1.03987E+03  2.288E+00  5.529E+01  5.593E-01  8.152E-01
   1   13    8     7     2    1.4863E+02  1.9151E+00   1.4672E+02  0.000E+00  0.000E+00  0.000E+00  1.03478E+03  2.279E+00  5.526E+01  6.148E-01  1.038E+00
   1   13    7     7     3    1.4672E+02  1.5795E+00   1.4514E+02  0.000E+00  0.000E+00  0.000E+00  1.02969E+03  2.270E+00  5.521E+01  5.584E-01  9.429E-01
   1   13    6     8     1    1.5777E+02  9.4808E-01   1.5682E+02  0.000E+00  0.000E+00  0.000E+00  1.02474E+03  2.867E+00  4.158E+01  4.237E-01  7.459E-01
   1   13    5     8     2    1.5682E+02  2.0205E-01   1.5662E+02  0.000E+00  0.000E+00  0.000E+00  1.01849E+03  2.864E+00  4.152E+01  4.231E-01  1.592E-01
   1   13    4     8     3    1.5662E+02 -2.4386E+00   1.5906E+02  0.000E+00  0.000E+00  0.000E+00  1.01225E+03  2.871E+00  4.163E+01  4.242E+00 -1.916E-01
   1   13    3     8     4    1.5906E+02 -3.7124E+00   1.6277E+02  0.000E+00  0.000E+00  0.000E+00  1.00602E+03  2.892E+00  4.193E+01  4.273E+00 -2.896E-01
   1   13    2     8     5    1.6277E+02 -2.7233E+00   1.6549E+02  0.000E+00  0.000E+00  0.000E+00  9.99789E+02  2.914E+00  4.225E+01  4.305E+00 -2.109E-01
   1   13    1     8     6    1.6549E+02 -2.0877E+00   1.6758E+02  0.000E+00  0.000E+00  0.000E+00  9.94805E+02  2.930E+00  4.248E+01  2.597E+00 -2.679E-01
   1    8    6     9     1    2.2470E+01  0.0000E+00   2.2470E+01  0.000E+00  0.000E+00  0.000E+00  1.08243E+03  3.683E+00  4.000E+00  0.000E+00  2.228E+00
   1    8    5     9     2    2.2470E+01  0.0000E+00   2.2470E+01  0.000E+00  0.000E+00  0.000E+00  1.08193E+03  3.683E+00  4.000E+00  0.000E+00  2.228E+00



 UBDSV3 SAVING "           GW ET" ON UNIT  61 AT TIME STEP 15, STRESS PERIOD 7
 UBDSV3 SAVING "    UZF RECHARGE" ON UNIT  61 AT TIME STEP 15, STRESS PERIOD 7
 UBDSV3 SAVING " SURFACE LEAKAGE" ON UNIT  61 AT TIME STEP 15, STRESS PERIOD 7
 UBDSV3 SAVING "       HORT+DUNN" ON UNIT  61 AT TIME STEP 15, STRESS PERIOD 7
 UBDSV3 SAVING "  STORAGE CHANGE" ON UNIT  61 AT TIME STEP 15, STRESS PERIOD 7


UNSATURATED ZONE PACKAGE VOLUMETRIC BUDGET FOR  TIME STEP    15 STRESS PERIOD    7
  ------------------------------------------------------------------------------



     CUMULATIVE VOLUMES      L**3       RATES FOR THIS TIME STEP      L**3/T
     ------------------                 ------------------------

           IN:                                      IN:
           ---                                      ---
        INFILTRATION =    78102177.9790          INFILTRATION =          23.3179

          OUT:                                     OUT:
          ----                                     ----
              UZF ET =    73373421.8199                UZF ET =          23.3175
        UZF RECHARGE =       73224.0000          UZF RECHARGE =       0.0000E+00

            IN - OUT =     4655532.1591              IN - OUT =       4.4346E-04

          STORAGE:                                 STORAGE:
          --------                                 --------
      STORAGE CHANGE =     4655836.9526        STORAGE CHANGE =       4.4338E-04

 PERCENT DISCREPANCY IS DIFFERENCE BETWEEN IN-OUT MINUS CHANGE IN STORAGE
 DIVIDED BY THE AVERAGE OF IN AND OUT TIMES 100

 PERCENT DISCREPANCY =          -0.00     PERCENT DISCREPANCY =           0.00






 

            AG WELLS      PERIOD    7   STEP  15
 AG WELL      1   LAYER   1   ROW     6   COL     4   RATE     0.00000    
 AG WELL      2   LAYER   1   ROW     6   COL     5   RATE     0.00000    
 AG WELL      3   LAYER   1   ROW     7   COL     4   RATE     0.00000    
 AG WELL      4   LAYER   1   ROW     7   COL     5   RATE     0.00000    
 AG WELL      5   LAYER   1   ROW     8   COL     4   RATE     0.00000    
 AG WELL      6   LAYER   1   ROW     8   COL     5   RATE     0.00000    
 
 

   DIVERSION SEGMENTS     PERIOD    7   STEP  15
 SEGMENT      9   RATE     22.4700    
 
 

        SW IRRIGATION     PERIOD    7   STEP  15
 SEGMENT      9   ROW     6   COL     4   RATE     3.74507    
 SEGMENT      9   ROW     6   COL     5   RATE     3.74507    
 SEGMENT      9   ROW     7   COL     4   RATE     3.74507    
 SEGMENT      9   ROW     7   COL     5   RATE     3.74507    
 SEGMENT      9   ROW     8   COL     4   RATE     3.74507    
 SEGMENT      9   ROW     8   COL     5   RATE     3.74507    
 
 

        GW IRRIGATION     PERIOD    7   STEP  15
 AG WELL      1   ROW     6   COL     4   RATE     0.00000    
 AG WELL      2   ROW     6   COL     5   RATE     0.00000    
 AG WELL      3   ROW     7   COL     4   RATE     0.00000    
 AG WELL      4   ROW     7   COL     5   RATE     0.00000    
 AG WELL      5   ROW     8   COL     4   RATE     0.00000    
 AG WELL      6   ROW     8   COL     5   RATE     0.00000    
 
1
  VOLUMETRIC BUDGET FOR AGRICULTURAL FIELDS AT  END OF TIME STEP   15, STRESS PERIOD   7
  ------------------------------------------------------------------------------

     CUMULATIVE VOLUMES      L**3       RATES FOR THIS TIME STEP      L**3/T
     ------------------                 ------------------------

           IN:                                      IN:
           ---                                      ---
               AG WELLS  =    12204165.0000                 AG WELLS  =           0.0000
      DIVERSION SEGMENTS =    53595012.0000        DIVERSION SEGMENTS =          22.4700
       IRRIGATION PONDS  =           0.0000         IRRIGATION PONDS  =           0.0000
           GW IRRIGATION =           0.0000             GW IRRIGATION =           0.0000
           SW IRRIGATION =           0.0000             SW IRRIGATION =           0.0000
        SYSTEM LOSSES GW =           0.0000          SYSTEM LOSSES GW =           0.0000
        SYSTEM LOSSES SW =           0.0000          SYSTEM LOSSES SW =           0.0000

                TOTAL IN =    65799176.0000                  TOTAL IN =          22.4700

          OUT:                                     OUT:
          ----                                     ----
               AG WELLS  =           0.0000                 AG WELLS  =           0.0000
      DIVERSION SEGMENTS =           0.0000        DIVERSION SEGMENTS =           0.0000
       IRRIGATION PONDS  =           0.0000         IRRIGATION PONDS  =           0.0000
           GW IRRIGATION =    12204165.0000             GW IRRIGATION =           0.0000
           SW IRRIGATION =    53596096.0000             SW IRRIGATION =          22.4704
        SYSTEM LOSSES GW =           0.0000          SYSTEM LOSSES GW =           0.0000
        SYSTEM LOSSES SW =           0.0000          SYSTEM LOSSES SW =           0.0000

               TOTAL OUT =    65800260.0000                 TOTAL OUT =          22.4704

                IN - OUT =       -1084.0000                  IN - OUT =      -4.5013E-04

     PERCENT DISCREPANCY =          -0.00         PERCENT DISCREPANCY =          -0.00



1
  VOLUMETRIC BUDGET FOR ENTIRE MODEL AT END OF TIME STEP   15, STRESS PERIOD   7
  ------------------------------------------------------------------------------

     CUMULATIVE VOLUMES      L**3       RATES FOR THIS TIME STEP      L**3/T
     ------------------                 ------------------------

           IN:                                      IN:
           ---                                      ---
             STORAGE     =    22921266.0000               STORAGE     =           2.3999
       CONSTANT HEAD     =           0.0000         CONSTANT HEAD     =           0.0000
     HEAD DEP BOUNDS     =     4188818.0000       HEAD DEP BOUNDS     =           0.2879
      STREAM LEAKAGE     =   172191248.0000        STREAM LEAKAGE     =          12.0695
        UZF RECHARGE     =       73223.9531          UZF RECHARGE     =           0.0000
               GW ET     =           0.0000                 GW ET     =           0.0000
     SURFACE LEAKAGE     =           0.0000       SURFACE LEAKAGE     =           0.0000
           AG WELLS      =           0.0000             AG WELLS      =           0.0000

                TOTAL IN =   199374544.0000                  TOTAL IN =          14.7573

          OUT:                                     OUT:
          ----                                     ----
             STORAGE     =    34028928.0000               STORAGE     =           3.4721
       CONSTANT HEAD     =           0.0000         CONSTANT HEAD     =           0.0000
     HEAD DEP BOUNDS     =     4199177.5000       HEAD DEP BOUNDS     =           0.2891
      STREAM LEAKAGE     =   148945680.0000        STREAM LEAKAGE     =          10.9959
        UZF RECHARGE     =           0.0000          UZF RECHARGE     =           0.0000
               GW ET     =           0.0000                 GW ET     =           0.0000
     SURFACE LEAKAGE     =           0.0000       SURFACE LEAKAGE     =           0.0000
           AG WELLS      =    12204165.0000             AG WELLS      =           0.0000

               TOTAL OUT =   199377952.0000                 TOTAL OUT =          14.7571

                IN - OUT =       -3408.0000                  IN - OUT =       1.8501E-04

     PERCENT DISCREPANCY =          -0.00         PERCENT DISCREPANCY =           0.00






         TIME SUMMARY AT END OF TIME STEP   15 IN STRESS PERIOD    7
                    SECONDS     MINUTES      HOURS       DAYS        YEARS
                    -----------------------------------------------------------
   TIME STEP LENGTH  87667.      1461.1      24.352      1.0147     2.77799E-03
 STRESS PERIOD TIME 1.31500E+06  21917.      365.28      15.220     4.16698E-02
         TOTAL TIME 1.45514E+07 2.42524E+05  4042.1      168.42     0.46111    
1
 
 SOLVING FOR HEAD 
                                                   Max.-Head-Change                         Max.-Flux-Residual
  Residual-Control   Outer-Iter.   Inner-Iter.     Column Row Layer    Maximum-Head-Change  Column Row Layer    Maximum-Flux-Residual          L2-NORM 
          0                 1           2             5    6     1       0.8275283539E-02       5    6    1         0.4490736546E+00      0.1188361188E+01
          0                 2           2             7   13     1      -0.2348980118E-02       7   13    1        -0.1302779108E+00      0.1738223271E+00
          0                 3           2             4    7     1      -0.6974350854E-01       4    7    1        -0.3743526305E+01      0.9209449323E+01
          0                 4           2             4    7     1       0.7262402096E-01       4    7    1         0.4007085292E+01      0.9815431344E+01
          0                 5           2             4    7     1      -0.2890496007E-02       5    8    1        -0.1639853906E+00      0.4016557512E+00
          0                 6           1             4    7     1       0.3566747620E-04       5    8    1         0.2080316005E-02      0.5096300640E-02

    ------------------------------------------------
       NWT REQUIRED            6 OUTER ITERATIONS 
       AND A TOTAL OF         11 INNER ITERATIONS.
    ------------------------------------------------

 NO OUTPUT CONTROL FOR STRESS PERIOD    7   TIME STEP   16
 
 SOLVING FOR HEAD 
                                                   Max.-Head-Change                         Max.-Flux-Residual
  Residual-Control   Outer-Iter.   Inner-Iter.     Column Row Layer    Maximum-Head-Change  Column Row Layer    Maximum-Flux-Residual          L2-NORM 
          0                 1           2             5    6     1       0.7932494403E-02       5    6    1         0.4300928449E+00      0.1170413930E+01
          0                 2           2             7   13     1      -0.2350680131E-02       7   13    1        -0.1303710050E+00      0.1725585260E+00
          0                 3           2             4    7     1      -0.6974309106E-01       4    7    1        -0.3743499849E+01      0.9209678975E+01
          0                 4           2             4    7     1       0.7262400049E-01       4    7    1         0.4007083198E+01      0.9815442391E+01
          0                 5           2             4    7     1      -0.2890495191E-02       5    8    1        -0.1639857728E+00      0.4016561716E+00
          0                 6           1             4    7     1       0.3566746601E-04       5    8    1         0.2080320830E-02      0.5096306357E-02

    ------------------------------------------------
       NWT REQUIRED            6 OUTER ITERATIONS 
       AND A TOTAL OF         11 INNER ITERATIONS.
    ------------------------------------------------

 NO OUTPUT CONTROL FOR STRESS PERIOD    7   TIME STEP   17
 
 SOLVING FOR HEAD 
                                                   Max.-Head-Change                         Max.-Flux-Residual
  Residual-Control   Outer-Iter.   Inner-Iter.     Column Row Layer    Maximum-Head-Change  Column Row Layer    Maximum-Flux-Residual          L2-NORM 
          0                 1           2             5    6     1       0.7610416941E-02       5    6    1         0.4122699215E+00      0.1154612001E+01
          0                 2           2             7   13     1      -0.2352366417E-02       7   13    1        -0.1304633905E+00      0.1714546588E+00
          0                 3           2             4    7     1      -0.6974273752E-01       4    7    1        -0.3743477108E+01      0.9209897333E+01
          0                 4           2             4    7     1       0.7262398744E-01       4    7    1         0.4007081603E+01      0.9815453557E+01
          0                 5           2             4    7     1      -0.2890494671E-02       5    8    1        -0.1639861404E+00      0.4016566132E+00
          0                 6           1             4    7     1       0.3566745962E-04       5    8    1         0.2080325456E-02      0.5096302830E-02

    ------------------------------------------------
       NWT REQUIRED            6 OUTER ITERATIONS 
       AND A TOTAL OF         11 INNER ITERATIONS.
    ------------------------------------------------

 NO OUTPUT CONTROL FOR STRESS PERIOD    7   TIME STEP   18
 
 SOLVING FOR HEAD 
                                                   Max.-Head-Change                         Max.-Flux-Residual
  Residual-Control   Outer-Iter.   Inner-Iter.     Column Row Layer    Maximum-Head-Change  Column Row Layer    Maximum-Flux-Residual          L2-NORM 
          0                 1           2             5    6     1       0.7307856533E-02       5    6    1         0.3955374027E+00      0.1140691033E+01
          0                 2           2             7   13     1      -0.2354043938E-02       7   13    1        -0.1305553472E+00      0.1704903721E+00
          0                 3           2             4    7     1      -0.6974243491E-01       4    7    1        -0.3743457369E+01      0.9210103840E+01
          0                 4           2             4    7     1       0.7262397237E-01       4    7    1         0.4007079980E+01      0.9815463586E+01
          0                 5           2             4    7     1      -0.2890494071E-02       5    8    1        -0.1639864742E+00      0.4016570005E+00
          0                 6           1             4    7     1       0.3566745257E-04       5    8    1         0.2080329667E-02      0.5096310105E-02

    ------------------------------------------------
       NWT REQUIRED            6 OUTER ITERATIONS 
       AND A TOTAL OF         11 INNER ITERATIONS.
    ------------------------------------------------

 NO OUTPUT CONTROL FOR STRESS PERIOD    7   TIME STEP   19
 
 SOLVING FOR HEAD 
                                                   Max.-Head-Change                         Max.-Flux-Residual
  Residual-Control   Outer-Iter.   Inner-Iter.     Column Row Layer    Maximum-Head-Change  Column Row Layer    Maximum-Flux-Residual          L2-NORM 
          0                 1           2             5    6     1       0.7023120902E-02       4   13    1         0.4030705854E+00      0.1128412354E+01
          0                 2           2             7   13     1      -0.2355702132E-02       7   13    1        -0.1306462812E+00      0.1696470706E+00
          0                 3           2             4    7     1      -0.6974217932E-01       4    7    1        -0.3743440408E+01      0.9210299054E+01
          0                 4           2             4    7     1       0.7262395507E-01       4    7    1         0.4007078312E+01      0.9815472521E+01
          0                 5           2             4    7     1      -0.2890493383E-02       5    8    1        -0.1639867760E+00      0.4016573433E+00
          0                 6           1             4    7     1       0.3566744394E-04       5    8    1         0.2080333495E-02      0.5096309539E-02

    ------------------------------------------------
       NWT REQUIRED            6 OUTER ITERATIONS 
       AND A TOTAL OF         11 INNER ITERATIONS.
    ------------------------------------------------

 NO OUTPUT CONTROL FOR STRESS PERIOD    7   TIME STEP   20
 
 SOLVING FOR HEAD 
                                                   Max.-Head-Change                         Max.-Flux-Residual
  Residual-Control   Outer-Iter.   Inner-Iter.     Column Row Layer    Maximum-Head-Change  Column Row Layer    Maximum-Flux-Residual          L2-NORM 
          0                 1           2             4   13     1       0.7182205412E-02       4   13    1         0.4129039965E+00      0.1117567465E+01
          0                 2           2             7   13     1      -0.2357318892E-02       7   13    1        -0.1307349545E+00      0.1689068734E+00
          0                 3           2             4    7     1      -0.6974197592E-01       4    7    1        -0.3743426488E+01      0.9210485124E+01
          0                 4           2             4    7     1       0.7262394462E-01       4    7    1         0.4007077096E+01      0.9815481640E+01
          0                 5           2             4    7     1      -0.2890492966E-02       5    8    1        -0.1639870683E+00      0.4016576950E+00
          0                 6           1             4    7     1       0.3566743890E-04       5    8    1         0.2080337179E-02      0.5096311478E-02

    ------------------------------------------------
       NWT REQUIRED            6 OUTER ITERATIONS 
       AND A TOTAL OF         11 INNER ITERATIONS.
    ------------------------------------------------

 NO OUTPUT CONTROL FOR STRESS PERIOD    7   TIME STEP   21
 
 SOLVING FOR HEAD 
                                                   Max.-Head-Change                         Max.-Flux-Residual
  Residual-Control   Outer-Iter.   Inner-Iter.     Column Row Layer    Maximum-Head-Change  Column Row Layer    Maximum-Flux-Residual          L2-NORM 
          0                 1           2             4   13     1       0.7337554247E-02       4   13    1         0.4218300126E+00      0.1107983812E+01
          0                 2           2             7   13     1      -0.2358945798E-02       7   13    1        -0.1308242493E+00      0.1682603846E+00
          0                 3           2             4    7     1      -0.6974182302E-01       4    7    1        -0.3743415512E+01      0.9210662399E+01
          0                 4           2             4    7     1       0.7262394094E-01       4    7    1         0.4007076325E+01      0.9815490971E+01
          0                 5           2             4    7     1      -0.2890492819E-02       5    8    1        -0.1639873522E+00      0.4016580656E+00
          0                 6           1             4    7     1       0.3566743711E-04       5    8    1         0.2080340752E-02      0.5096315809E-02

    ------------------------------------------------
       NWT REQUIRED            6 OUTER ITERATIONS 
       AND A TOTAL OF         11 INNER ITERATIONS.
    ------------------------------------------------

 NO OUTPUT CONTROL FOR STRESS PERIOD    7   TIME STEP   22
 
 SOLVING FOR HEAD 
                                                   Max.-Head-Change                         Max.-Flux-Residual
  Residual-Control   Outer-Iter.   Inner-Iter.     Column Row Layer    Maximum-Head-Change  Column Row Layer    Maximum-Flux-Residual          L2-NORM 
          0                 1           2             4   13     1       0.7478510587E-02       4   13    1         0.4299258569E+00      0.1099478328E+01
          0                 2           2             7   13     1      -0.2360515943E-02       7   13    1        -0.1309104317E+00      0.1676894791E+00
          0                 3           2             4    7     1      -0.6974170656E-01       4    7    1        -0.3743406703E+01      0.9210830744E+01
          0                 4           2             4    7     1       0.7262393453E-01       4    7    1         0.4007075467E+01      0.9815499283E+01
          0                 5           2             4    7     1      -0.2890492564E-02       5    8    1        -0.1639876086E+00      0.4016583827E+00
          0                 6           1             4    7     1       0.3566743397E-04       5    8    1         0.2080344007E-02      0.5096311159E-02

    ------------------------------------------------
       NWT REQUIRED            6 OUTER ITERATIONS 
       AND A TOTAL OF         11 INNER ITERATIONS.
    ------------------------------------------------

 NO OUTPUT CONTROL FOR STRESS PERIOD    7   TIME STEP   23
 
 SOLVING FOR HEAD 
                                                   Max.-Head-Change                         Max.-Flux-Residual
  Residual-Control   Outer-Iter.   Inner-Iter.     Column Row Layer    Maximum-Head-Change  Column Row Layer    Maximum-Flux-Residual          L2-NORM 
          0                 1           2             4   13     1       0.7606668877E-02       4   13    1         0.4372836594E+00      0.1091933208E+01
          0                 2           2             7   13     1      -0.2362073530E-02       7   13    1        -0.1309959464E+00      0.1671889596E+00
          0                 3           2             4    7     1      -0.6974162336E-01       4    7    1        -0.3743399883E+01      0.9210990012E+01
          0                 4           2             4    7     1       0.7262392523E-01       4    7    1         0.4007074509E+01      0.9815506587E+01
          0                 5           2             4    7     1      -0.2890492193E-02       5    8    1        -0.1639878384E+00      0.4016586868E+00
          0                 6           1             4    7     1       0.3566742927E-04       5    8    1         0.2080346922E-02      0.5096335364E-02

    ------------------------------------------------
       NWT REQUIRED            6 OUTER ITERATIONS 
       AND A TOTAL OF         11 INNER ITERATIONS.
    ------------------------------------------------

 NO OUTPUT CONTROL FOR STRESS PERIOD    7   TIME STEP   24
 
 SOLVING FOR HEAD 
                                                   Max.-Head-Change                         Max.-Flux-Residual
  Residual-Control   Outer-Iter.   Inner-Iter.     Column Row Layer    Maximum-Head-Change  Column Row Layer    Maximum-Flux-Residual          L2-NORM 
          0                 1           2             4   13     1       0.7723173840E-02       4   13    1         0.4439696276E+00      0.1085212515E+01
          0                 2           2             7   13     1      -0.2363620250E-02       7   13    1        -0.1310808959E+00      0.1667478607E+00
          0                 3           2             4    7     1      -0.6974158568E-01       4    7    1        -0.3743395699E+01      0.9211143059E+01
          0                 4           2             4    7     1       0.7262392687E-01       5    8    1         0.4007077664E+01      0.9815514789E+01
          0                 5           2             4    7     1      -0.2890492258E-02       5    8    1        -0.1639880741E+00      0.4016589828E+00
          0                 6           1             4    7     1       0.3566743005E-04       5    8    1         0.2080349874E-02      0.5096318454E-02

    ------------------------------------------------
       NWT REQUIRED            6 OUTER ITERATIONS 
       AND A TOTAL OF         11 INNER ITERATIONS.
    ------------------------------------------------

 NO OUTPUT CONTROL FOR STRESS PERIOD    7   TIME STEP   25
 
 SOLVING FOR HEAD 
                                                   Max.-Head-Change                         Max.-Flux-Residual
  Residual-Control   Outer-Iter.   Inner-Iter.     Column Row Layer    Maximum-Head-Change  Column Row Layer    Maximum-Flux-Residual          L2-NORM 
          0                 1           2             4   13     1       0.7829083193E-02       4   13    1         0.4500448420E+00      0.1079212007E+01
          0                 2           2             7   13     1      -0.2365149913E-02       7   13    1        -0.1311649361E+00      0.1663589589E+00
          0                 3           2             4    7     1      -0.6974157549E-01       4    7    1        -0.3743393170E+01      0.9211288348E+01
          0                 4           2             4    7     1       0.7262392535E-01       5    8    1         0.4007082853E+01      0.9815522042E+01
          0                 5           2             4    7     1      -0.2890492197E-02       5    8    1        -0.1639882855E+00      0.4016592696E+00
          0                 6           1             4    7     1       0.3566742916E-04       5    8    1         0.2080352550E-02      0.5096327787E-02

    ------------------------------------------------
       NWT REQUIRED            6 OUTER ITERATIONS 
       AND A TOTAL OF         11 INNER ITERATIONS.
    ------------------------------------------------

 NO OUTPUT CONTROL FOR STRESS PERIOD    7   TIME STEP   26
 
 SOLVING FOR HEAD 
                                                   Max.-Head-Change                         Max.-Flux-Residual
  Residual-Control   Outer-Iter.   Inner-Iter.     Column Row Layer    Maximum-Head-Change  Column Row Layer    Maximum-Flux-Residual          L2-NORM 
          0                 1           2             4   13     1       0.7925353205E-02       4   13    1         0.4555646926E+00      0.1073836389E+01
          0                 2           2             7   13     1      -0.2366639876E-02       7   13    1        -0.1312468051E+00      0.1660142424E+00
          0                 3           2             4    7     1      -0.6974159556E-01       4    7    1        -0.3743392433E+01      0.9211426654E+01
          0                 4           2             4    7     1       0.7262392521E-01       5    8    1         0.4007087724E+01      0.9815529063E+01
          0                 5           2             4    7     1      -0.2890492192E-02       5    8    1        -0.1639884839E+00      0.4016596308E+00
          0                 6           1             4    7     1       0.3566742949E-04       5    8    1         0.2080355050E-02      0.5096320819E-02

    ------------------------------------------------
       NWT REQUIRED            6 OUTER ITERATIONS 
       AND A TOTAL OF         11 INNER ITERATIONS.
    ------------------------------------------------

 NO OUTPUT CONTROL FOR STRESS PERIOD    7   TIME STEP   27
 
 SOLVING FOR HEAD 
                                                   Max.-Head-Change                         Max.-Flux-Residual
  Residual-Control   Outer-Iter.   Inner-Iter.     Column Row Layer    Maximum-Head-Change  Column Row Layer    Maximum-Flux-Residual          L2-NORM 
          0                 1           2             4   13     1       0.8013150761E-02       4   13    1         0.4605966924E+00      0.1069017148E+01
          0                 2           2             7   13     1      -0.2368112904E-02       7   13    1        -0.1313277597E+00      0.1657095752E+00
          0                 3           2             4    7     1      -0.6974163984E-01       4    7    1        -0.3743393160E+01      0.9211558097E+01
          0                 4           2             4    7     1       0.7262392175E-01       5    8    1         0.4007092040E+01      0.9815534951E+01
          0                 5           2             4    7     1      -0.2890492053E-02       5    8    1        -0.1639886597E+00      0.4016597633E+00
          0                 6           1             4    7     1       0.3566742748E-04       5    8    1         0.2080357282E-02      0.5096325678E-02

    ------------------------------------------------
       NWT REQUIRED            6 OUTER ITERATIONS 
       AND A TOTAL OF         11 INNER ITERATIONS.
    ------------------------------------------------

 NO OUTPUT CONTROL FOR STRESS PERIOD    7   TIME STEP   28
 
 SOLVING FOR HEAD 
                                                   Max.-Head-Change                         Max.-Flux-Residual
  Residual-Control   Outer-Iter.   Inner-Iter.     Column Row Layer    Maximum-Head-Change  Column Row Layer    Maximum-Flux-Residual          L2-NORM 
          0                 1           2             4   13     1       0.8092984806E-02       4   13    1         0.4651700580E+00      0.1064667903E+01
          0                 2           2             7   13     1      -0.2369561724E-02       7   13    1        -0.1314074083E+00      0.1654387307E+00
          0                 3           2             4    7     1      -0.6974171751E-01       4    7    1        -0.3743395824E+01      0.9211684805E+01
          0                 4           2             4    7     1       0.7262392864E-01       5    8    1         0.4007096590E+01      0.9815541917E+01
          0                 5           2             4    7     1      -0.2890492328E-02       5    8    1        -0.1639888452E+00      0.4016600379E+00
          0                 6           1             4    7     1       0.3566743117E-04       5    8    1         0.2080359616E-02      0.5096323250E-02

    ------------------------------------------------
       NWT REQUIRED            6 OUTER ITERATIONS 
       AND A TOTAL OF         11 INNER ITERATIONS.
    ------------------------------------------------

 NO OUTPUT CONTROL FOR STRESS PERIOD    7   TIME STEP   29
 
 SOLVING FOR HEAD 
                                                   Max.-Head-Change                         Max.-Flux-Residual
  Residual-Control   Outer-Iter.   Inner-Iter.     Column Row Layer    Maximum-Head-Change  Column Row Layer    Maximum-Flux-Residual          L2-NORM 
          0                 1           2             4   13     1       0.7270059789E-02       4   13    1         0.4178029065E+00      0.9899657041E+00
          0                 2           2             7   13     1      -0.2126307468E-02       7   13    1        -0.1179192030E+00      0.1507117174E+00
          0                 3           2             4    7     1      -0.6974181499E-01       4    7    1        -0.3743399689E+01      0.9211571877E+01
          0                 4           2             4    7     1       0.7262393200E-01       5    8    1         0.4007100662E+01      0.9815624650E+01
          0                 5           2             4    7     1      -0.2890492461E-02       5    8    1        -0.1639890124E+00      0.4016692177E+00
          0                 6           1             4    7     1       0.3566743274E-04       5    8    1         0.2080361749E-02      0.5097483505E-02

    ------------------------------------------------
       NWT REQUIRED            6 OUTER ITERATIONS 
       AND A TOTAL OF         11 INNER ITERATIONS.
    ------------------------------------------------

 NO OUTPUT CONTROL FOR STRESS PERIOD    7   TIME STEP   30



 STREAM LISTING     PERIOD      7   STEP       30

 LAYER ROW COL. STREAM  RCH.  FLOW INTO     FLOW TO   FLOW OUT OF   OVRLND.     DIRECT     STREAM       STREAM     STREAM     STREAM   STREAMBED  STREAMBED
                SEG.NO.  NO.  STRM. RCH.    AQUIFER    STRM. RCH.    RUNOFF     PRECIP       ET          HEAD       DEPTH      WIDTH   CONDCTNC.   GRADIENT

   1    1    1     1     1    2.8852E+01  2.6229E-01   2.8590E+01  0.000E+00  0.000E+00  0.000E+00  1.09428E+03  1.233E+00  1.377E+01  6.197E-02  1.411E+00
   1    2    2     1     2    2.8590E+01  4.0577E-01   2.8184E+01  0.000E+00  0.000E+00  0.000E+00  1.08929E+03  1.228E+00  1.371E+01  9.596E-02  1.409E+00
   1    3    3     1     3    2.8184E+01  3.4562E-01   2.7838E+01  0.000E+00  0.000E+00  0.000E+00  1.08364E+03  1.223E+00  1.364E+01  8.184E-02  1.408E+00
   1    3    4     1     4    2.7838E+01  3.1791E-01   2.7521E+01  0.000E+00  0.000E+00  0.000E+00  1.07863E+03  1.219E+00  1.358E+01  7.536E-02  1.406E+00
   1    4    5     2     1    2.5521E+01  3.2899E-01   2.5192E+01  0.000E+00  0.000E+00  0.000E+00  1.07315E+03  1.218E+00  1.200E+01  7.800E-02  1.406E+00
   1    5    6     2     2    2.5192E+01  2.5257E-01   2.4939E+01  0.000E+00  0.000E+00  0.000E+00  1.06772E+03  1.209E+00  1.200E+01  6.000E-02  1.403E+00
   1    6    6     2     3    2.4939E+01  2.5213E-01   2.4687E+01  0.000E+00  0.000E+00  0.000E+00  1.06299E+03  1.202E+00  1.200E+01  6.000E-02  1.401E+00
   1    7    6     2     4    2.4687E+01  2.5169E-01   2.4435E+01  0.000E+00  0.000E+00  0.000E+00  1.05827E+03  1.195E+00  1.200E+01  6.000E-02  1.398E+00
   1    8    6     2     5    2.4435E+01  2.5125E-01   2.4184E+01  0.000E+00  0.000E+00  0.000E+00  1.05355E+03  1.187E+00  1.200E+01  6.000E-02  1.396E+00
   1    3    5     3     1    2.0000E+00  2.8252E-01   1.7175E+00  0.000E+00  0.000E+00  0.000E+00  1.07555E+03  1.909E+00  9.636E+00  7.227E-02  1.955E+00
   1    3    6     3     2    1.7175E+00  2.4905E-01   1.4684E+00  0.000E+00  0.000E+00  0.000E+00  1.07264E+03  1.727E+00  8.909E+00  6.682E-02  1.864E+00
   1    3    7     3     3    1.4684E+00  1.9718E-01   1.2712E+00  0.000E+00  0.000E+00  0.000E+00  1.06987E+03  1.555E+00  8.218E+00  5.547E-02  1.777E+00
   1    4    8     3     4    1.2712E+00  2.2567E-01   1.0456E+00  0.000E+00  0.000E+00  0.000E+00  1.06682E+03  1.364E+00  7.455E+00  6.709E-02  1.682E+00
   1    5    8     3     5    1.0456E+00  1.5790E-01   8.8768E-01  0.000E+00  0.000E+00  0.000E+00  1.06362E+03  1.164E+00  6.655E+00  4.991E-02  1.582E+00
   1    6    8     3     6    8.8768E-01  5.5980E-02   8.3170E-01  0.000E+00  0.000E+00  0.000E+00  1.06158E+03  1.036E+00  6.145E+00  1.844E-02  1.518E+00
   1    5   10     4     1    1.0000E+01  9.0919E-02   9.9091E+00  0.000E+00  0.000E+00  0.000E+00  1.07836E+03  6.368E-01  1.000E+01  2.500E-02  1.212E+00
   1    5    9     4     2    9.9091E+00  1.8158E-01   9.7275E+00  0.000E+00  0.000E+00  0.000E+00  1.07154E+03  6.315E-01  1.000E+01  5.000E-02  1.211E+00
   1    6    8     4     3    9.7275E+00  1.2689E-01   9.6006E+00  0.000E+00  0.000E+00  0.000E+00  1.06381E+03  6.256E-01  1.000E+01  3.500E-02  1.209E+00
   1    6    8     5     1    1.0432E+01  2.2686E-01   1.0205E+01  0.000E+00  0.000E+00  0.000E+00  1.05868E+03  6.790E-01  1.542E+01  6.166E-02  1.226E+00
   1    7    7     5     2    1.0205E+01  2.7894E-01   9.9265E+00  0.000E+00  0.000E+00  0.000E+00  1.05417E+03  6.732E-01  1.519E+01  7.594E-02  1.224E+00
   1    8    7     5     3    9.9265E+00  1.9221E-01   9.7343E+00  0.000E+00  0.000E+00  0.000E+00  1.04992E+03  6.676E-01  1.497E+01  5.241E-02  1.223E+00
   1    8    6     5     4    9.7343E+00  1.3577E-01   9.5985E+00  0.000E+00  0.000E+00  0.000E+00  1.04691E+03  6.637E-01  1.482E+01  3.706E-02  1.221E+00
   1    9    6     6     1    1.1312E+01  2.2525E-01   1.1087E+01  0.000E+00  0.000E+00  0.000E+00  1.04348E+03  7.542E-01  1.200E+01  6.000E-02  1.251E+00
   1   10    7     6     2    1.1087E+01  2.2471E-01   1.0863E+01  0.000E+00  0.000E+00  0.000E+00  1.03893E+03  7.451E-01  1.200E+01  6.000E-02  1.248E+00
   1   11    7     6     3    1.0863E+01  2.2415E-01   1.0638E+01  0.000E+00  0.000E+00  0.000E+00  1.03437E+03  7.359E-01  1.200E+01  6.000E-02  1.245E+00
   1   12    7     6     4    1.0638E+01  2.2360E-01   1.0415E+01  0.000E+00  0.000E+00  0.000E+00  1.02982E+03  7.267E-01  1.200E+01  6.000E-02  1.242E+00
   1   13    7     6     5    1.0415E+01 -5.3657E-02   1.0468E+01  0.000E+00  0.000E+00  0.000E+00  1.02663E+03  7.232E-01  1.200E+01  2.400E-01 -7.452E-02
   1   14    9     7     1    1.5000E+02  1.3680E+00   1.4863E+02  0.000E+00  0.000E+00  0.000E+00  1.03987E+03  2.288E+00  5.529E+01  5.593E-01  8.153E-01
   1   13    8     7     2    1.4863E+02  1.9151E+00   1.4672E+02  0.000E+00  0.000E+00  0.000E+00  1.03478E+03  2.279E+00  5.526E+01  6.148E-01  1.038E+00
   1   13    7     7     3    1.4672E+02  1.5820E+00   1.4513E+02  0.000E+00  0.000E+00  0.000E+00  1.02969E+03  2.270E+00  5.521E+01  5.584E-01  9.444E-01
   1   13    6     8     1    1.5560E+02  9.4111E-01   1.5466E+02  0.000E+00  0.000E+00  0.000E+00  1.02473E+03  2.853E+00  4.136E+01  4.215E-01  7.443E-01
   1   13    5     8     2    1.5466E+02  1.9947E-01   1.5446E+02  0.000E+00  0.000E+00  0.000E+00  1.01847E+03  2.849E+00  4.131E+01  4.209E-01  1.580E-01
   1   13    4     8     3    1.5446E+02 -2.3924E+00   1.5686E+02  0.000E+00  0.000E+00  0.000E+00  1.01223E+03  2.856E+00  4.142E+01  4.220E+00 -1.890E-01
   1   13    3     8     4    1.5686E+02 -3.6564E+00   1.6051E+02  0.000E+00  0.000E+00  0.000E+00  1.00600E+03  2.877E+00  4.172E+01  4.251E+00 -2.867E-01
   1   13    2     8     5    1.6051E+02 -2.6558E+00   1.6317E+02  0.000E+00  0.000E+00  0.000E+00  9.99773E+02  2.898E+00  4.202E+01  4.282E+00 -2.067E-01
   1   13    1     8     6    1.6317E+02 -2.0537E+00   1.6522E+02  0.000E+00  0.000E+00  0.000E+00  9.94789E+02  2.914E+00  4.225E+01  2.583E+00 -2.650E-01
   1    8    6     9     1    2.2470E+01  0.0000E+00   2.2470E+01  0.000E+00  0.000E+00  0.000E+00  1.08243E+03  3.683E+00  4.000E+00  0.000E+00  2.228E+00
   1    8    5     9     2    2.2470E+01  0.0000E+00   2.2470E+01  0.000E+00  0.000E+00  0.000E+00  1.08193E+03  3.683E+00  4.000E+00  0.000E+00  2.228E+00





UNSATURATED ZONE PACKAGE VOLUMETRIC BUDGET FOR  TIME STEP    30 STRESS PERIOD    7
  ------------------------------------------------------------------------------



     CUMULATIVE VOLUMES      L**3       RATES FOR THIS TIME STEP      L**3/T
     ------------------                 ------------------------

           IN:                                      IN:
           ---                                      ---
        INFILTRATION =   108765255.9172          INFILTRATION =          23.3179

          OUT:                                     OUT:
          ----                                     ----
              UZF ET =   104035934.2581                UZF ET =          23.3175
        UZF RECHARGE =       73224.0000          UZF RECHARGE =       0.0000E+00

            IN - OUT =     4656097.6591              IN - OUT =       4.2200E-04

          STORAGE:                                 STORAGE:
          --------                                 --------
      STORAGE CHANGE =     4656403.3607        STORAGE CHANGE =       4.2205E-04

 PERCENT DISCREPANCY IS DIFFERENCE BETWEEN IN-OUT MINUS CHANGE IN STORAGE
 DIVIDED BY THE AVERAGE OF IN AND OUT TIMES 100

 PERCENT DISCREPANCY =          -0.00     PERCENT DISCREPANCY =           0.00






1
  VOLUMETRIC BUDGET FOR AGRICULTURAL FIELDS AT  END OF TIME STEP   30, STRESS PERIOD   7
  ------------------------------------------------------------------------------

     CUMULATIVE VOLUMES      L**3       RATES FOR THIS TIME STEP      L**3/T
     ------------------                 ------------------------

           IN:                                      IN:
           ---                                      ---
               AG WELLS  =    12204165.0000                 AG WELLS  =           0.0000
      DIVERSION SEGMENTS =    83143024.0000        DIVERSION SEGMENTS =          22.4700
       IRRIGATION PONDS  =           0.0000         IRRIGATION PONDS  =           0.0000
           GW IRRIGATION =           0.0000             GW IRRIGATION =           0.0000
           SW IRRIGATION =           0.0000             SW IRRIGATION =           0.0000
        SYSTEM LOSSES GW =           0.0000          SYSTEM LOSSES GW =           0.0000
        SYSTEM LOSSES SW =           0.0000          SYSTEM LOSSES SW =           0.0000

                TOTAL IN =    95347192.0000                  TOTAL IN =          22.4700

          OUT:                                     OUT:
          ----                                     ----
               AG WELLS  =           0.0000                 AG WELLS  =           0.0000
      DIVERSION SEGMENTS =           0.0000        DIVERSION SEGMENTS =           0.0000
       IRRIGATION PONDS  =           0.0000         IRRIGATION PONDS  =           0.0000
           GW IRRIGATION =    12204165.0000             GW IRRIGATION =           0.0000
           SW IRRIGATION =    83144680.0000             SW IRRIGATION =          22.4704
        SYSTEM LOSSES GW =           0.0000          SYSTEM LOSSES GW =           0.0000
        SYSTEM LOSSES SW =           0.0000          SYSTEM LOSSES SW =           0.0000

               TOTAL OUT =    95348848.0000                 TOTAL OUT =          22.4704

                IN - OUT =       -1656.0000                  IN - OUT =      -4.4823E-04

     PERCENT DISCREPANCY =          -0.00         PERCENT DISCREPANCY =          -0.00



1
  VOLUMETRIC BUDGET FOR ENTIRE MODEL AT END OF TIME STEP   30, STRESS PERIOD   7
  ------------------------------------------------------------------------------

     CUMULATIVE VOLUMES      L**3       RATES FOR THIS TIME STEP      L**3/T
     ------------------                 ------------------------

           IN:                                      IN:
           ---                                      ---
             STORAGE     =    25134428.0000               STORAGE     =           1.4115
       CONSTANT HEAD     =           0.0000         CONSTANT HEAD     =           0.0000
     HEAD DEP BOUNDS     =     4567468.0000       HEAD DEP BOUNDS     =           0.2880
      STREAM LEAKAGE     =   188061312.0000        STREAM LEAKAGE     =          11.9731
        UZF RECHARGE     =       73223.9531          UZF RECHARGE     =           0.0000
               GW ET     =           0.0000                 GW ET     =           0.0000
     SURFACE LEAKAGE     =           0.0000       SURFACE LEAKAGE     =           0.0000
           AG WELLS      =           0.0000             AG WELLS      =           0.0000

                TOTAL IN =   217836416.0000                  TOTAL IN =          13.6726

          OUT:                                     OUT:
          ----                                     ----
             STORAGE     =    37928492.0000               STORAGE     =           2.5722
       CONSTANT HEAD     =           0.0000         CONSTANT HEAD     =           0.0000
     HEAD DEP BOUNDS     =     4578662.5000       HEAD DEP BOUNDS     =           0.2882
      STREAM LEAKAGE     =   163128304.0000        STREAM LEAKAGE     =          10.8119
        UZF RECHARGE     =           0.0000          UZF RECHARGE     =           0.0000
               GW ET     =           0.0000                 GW ET     =           0.0000
     SURFACE LEAKAGE     =           0.0000       SURFACE LEAKAGE     =           0.0000
           AG WELLS      =    12204165.0000             AG WELLS      =           0.0000

               TOTAL OUT =   217839616.0000                 TOTAL OUT =          13.6724

                IN - OUT =       -3200.0000                  IN - OUT =       1.8501E-04

     PERCENT DISCREPANCY =          -0.00         PERCENT DISCREPANCY =           0.00






         TIME SUMMARY AT END OF TIME STEP   30 IN STRESS PERIOD    7
                    SECONDS     MINUTES      HOURS       DAYS        YEARS
                    -----------------------------------------------------------
   TIME STEP LENGTH  87667.      1461.1      24.352      1.0147     2.77799E-03
 STRESS PERIOD TIME 2.63000E+06  43833.      730.56      30.440     8.33397E-02
         TOTAL TIME 1.58664E+07 2.64440E+05  4407.3      183.64     0.50278    
1
1
                            STRESS PERIOD NO.    8, LENGTH =   2630000.    
                            -----------------------------------------------

                              NUMBER OF TIME STEPS =    30

                               MULTIPLIER FOR DELT =     1.000

                            INITIAL TIME STEP SIZE =   87666.66    

 REUSING NON-PARAMETER GHB CELLS FROM LAST STRESS PERIOD

      2 GHB CELLS

 REUSING STREAM SEGMENT DATA FROM LAST STRESS PERIOD



            AREAL INFILTRATION RATE
 READING ON UNIT   19 WITH FORMAT: (FREE)              

            1           2           3           4           5           6           7           8           9          10
 ........................................................................................................................
   1   1.0000E-10  2.0000E-10   0.000       0.000       0.000       0.000       0.000       0.000       0.000       0.000    
   2   2.0000E-10  1.0000E-10  2.0000E-10   0.000       0.000      8.0000E-10  8.0000E-10  5.0000E-10   0.000       0.000    
   3    0.000      5.0000E-10  1.0000E-10  1.0000E-10  8.0000E-10  8.0000E-10  5.0000E-10  5.0000E-10   0.000       0.000    
   4   8.0000E-10  5.0000E-10  1.0000E-10  1.0000E-10  1.0000E-10  1.0000E-10  1.0000E-10  1.0000E-10  2.0000E-10   0.000    
   5   8.0000E-10  5.0000E-10  1.0000E-10  1.0000E-10  1.0000E-10  1.0000E-10  1.0000E-10  1.0000E-10  1.0000E-10  1.0000E-10
   6   8.0000E-10  5.0000E-10  5.0000E-10  2.0000E-10  2.0000E-10  1.0000E-10  1.0000E-10  1.0000E-10  1.0000E-10  5.0000E-10
   7   8.0000E-10  5.0000E-10  5.0000E-10  2.0000E-10  2.0000E-10  1.0000E-10  1.0000E-10  2.0000E-10  2.0000E-10   0.000    
   8    0.000      5.0000E-10  5.0000E-10  2.0000E-10  2.0000E-10  1.0000E-10  1.0000E-10  2.0000E-10  5.0000E-10   0.000    
   9    0.000      5.0000E-10  5.0000E-10  2.0000E-10  2.0000E-10  1.0000E-10  1.0000E-10  2.0000E-10  5.0000E-10   0.000    
  10    0.000      5.0000E-10  5.0000E-10  2.0000E-10  2.0000E-10  1.0000E-10  1.0000E-10  2.0000E-10  5.0000E-10  8.0000E-10
  11    0.000      1.0000E-10  1.0000E-10  1.0000E-10  1.0000E-10  1.0000E-10  1.0000E-10  2.0000E-10  5.0000E-10   0.000    
  12   1.0000E-10  1.0000E-10  1.0000E-10  1.0000E-10  1.0000E-10  1.0000E-10  1.0000E-10  1.0000E-10  2.0000E-10   0.000    
  13   1.0000E-10  1.0000E-10  2.0000E-10  2.0000E-10  2.0000E-10  2.0000E-10  2.0000E-10  1.0000E-10  1.0000E-10   0.000    
  14    0.000      2.0000E-10  5.0000E-10  5.0000E-10  5.0000E-10  5.0000E-10  5.0000E-10  2.0000E-10  1.0000E-10   0.000    
  15    0.000       0.000      8.0000E-10  8.0000E-10  8.0000E-10  8.0000E-10   0.000       0.000       0.000       0.000    

                  ET RATE =  4.000000E-07

 USING ET EXTINCTION DEPTH FROM PREVIOUS STRESS PERIOD. CURRENT PERIOD IS:       8

 USING EXTINCTION WATER CONTENT FROM PREVIOUS STRESS PERIOD. CURRENT PERIOD IS:       8

 USING AIR ENTRY PRESSURE FROM PREVIOUS STRESS PERIOD. CURRENT PERIOD IS:       8

 USING ROOT PRESSURE HEAD FROM PREVIOUS STRESS PERIOD. CURRENT PERIOD IS:       8

 USING ROOT ACTIVITY FROM PREVIOUS STRESS PERIOD. CURRENT PERIOD IS:       8

 PROCESSING AG STRESS PERIOD DATA

 READING AG STRESS PERIOD DATA

 READING IRRIGATION SEGMENT

 READING IRRIGATION WELL

 READING SUPPLEMENTAL WELL

 NO IRRPOND OR REUSING IRRPOND DATA FROM LAST STRESS PERIOD

 END PROCESSING AG STRESS PERIOD DATA OPTIONS
 
 SOLVING FOR HEAD 
                                                   Max.-Head-Change                         Max.-Flux-Residual
  Residual-Control   Outer-Iter.   Inner-Iter.     Column Row Layer    Maximum-Head-Change  Column Row Layer    Maximum-Flux-Residual          L2-NORM 
          0                 1           2             5    6     1       0.4785429549E-02       5    6    1         0.2566038661E+00      0.7360681039E+00
          0                 2           2             4    7     1      -0.2302327776E+00       5    6    1        -0.1236080348E+02      0.3027382291E+02
          0                 3           2             4    7     1       0.1567767773E-01       5    7    1         0.8651175533E+00      0.2118861776E+01
          0                 4           2             4    7     1      -0.6238310042E-03       4    7    1        -0.3537820415E-01      0.8665950422E-01
          0                 5           1             4    7     1       0.7692104255E-05       4    7    1         0.4482683148E-03      0.1102718713E-02

    ------------------------------------------------
       NWT REQUIRED            5 OUTER ITERATIONS 
       AND A TOTAL OF          9 INNER ITERATIONS.
    ------------------------------------------------

 OUTPUT CONTROL FOR STRESS PERIOD    8   TIME STEP    1
    PRINT BUDGET
    SAVE BUDGET
 UBDSV1 SAVING "         STORAGE" ON UNIT 102 AT TIME STEP 1, STRESS PERIOD 8
 UBDSV2 SAVING "   CONSTANT HEAD" ON UNIT 102 AT TIME STEP 1, STRESS PERIOD 8
 UBDSV1 SAVING "FLOW RIGHT FACE " ON UNIT 102 AT TIME STEP 1, STRESS PERIOD 8
 UBDSV1 SAVING "FLOW FRONT FACE " ON UNIT 102 AT TIME STEP 1, STRESS PERIOD 8

  HEAD DEP BOUNDS   PERIOD    8   STEP     1
 BOUNDARY      1   LAYER   1   ROW    13   COL     1   RATE   -0.288119    
 BOUNDARY      2   LAYER   1   ROW    14   COL     9   RATE    0.287952    



 STREAM LISTING     PERIOD      8   STEP        1

 LAYER ROW COL. STREAM  RCH.  FLOW INTO     FLOW TO   FLOW OUT OF   OVRLND.     DIRECT     STREAM       STREAM     STREAM     STREAM   STREAMBED  STREAMBED
                SEG.NO.  NO.  STRM. RCH.    AQUIFER    STRM. RCH.    RUNOFF     PRECIP       ET          HEAD       DEPTH      WIDTH   CONDCTNC.   GRADIENT

   1    1    1     1     1    2.8125E+01  2.5915E-01   2.7866E+01  0.000E+00  0.000E+00  0.000E+00  1.09427E+03  1.223E+00  1.364E+01  6.137E-02  1.408E+00
   1    2    2     1     2    2.7866E+01  4.0087E-01   2.7465E+01  0.000E+00  0.000E+00  0.000E+00  1.08928E+03  1.218E+00  1.358E+01  9.503E-02  1.406E+00
   1    3    3     1     3    2.7465E+01  3.4143E-01   2.7124E+01  0.000E+00  0.000E+00  0.000E+00  1.08363E+03  1.213E+00  1.351E+01  8.104E-02  1.404E+00
   1    3    4     1     4    2.7124E+01  3.1403E-01   2.6810E+01  0.000E+00  0.000E+00  0.000E+00  1.07862E+03  1.209E+00  1.344E+01  7.461E-02  1.403E+00
   1    4    5     2     1    2.4810E+01  3.2739E-01   2.4482E+01  0.000E+00  0.000E+00  0.000E+00  1.07313E+03  1.197E+00  1.200E+01  7.800E-02  1.399E+00
   1    5    6     2     2    2.4482E+01  2.5133E-01   2.4231E+01  0.000E+00  0.000E+00  0.000E+00  1.06770E+03  1.189E+00  1.200E+01  6.000E-02  1.396E+00
   1    6    6     2     3    2.4231E+01  2.5089E-01   2.3980E+01  0.000E+00  0.000E+00  0.000E+00  1.06297E+03  1.181E+00  1.200E+01  6.000E-02  1.394E+00
   1    7    6     2     4    2.3980E+01  2.5044E-01   2.3730E+01  0.000E+00  0.000E+00  0.000E+00  1.05825E+03  1.174E+00  1.200E+01  6.000E-02  1.391E+00
   1    8    6     2     5    2.3730E+01  2.5000E-01   2.3480E+01  0.000E+00  0.000E+00  0.000E+00  1.05353E+03  1.167E+00  1.200E+01  6.000E-02  1.389E+00
   1    3    5     3     1    2.0000E+00  2.8252E-01   1.7175E+00  0.000E+00  0.000E+00  0.000E+00  1.07555E+03  1.909E+00  9.636E+00  7.227E-02  1.955E+00
   1    3    6     3     2    1.7175E+00  2.4905E-01   1.4684E+00  0.000E+00  0.000E+00  0.000E+00  1.07264E+03  1.727E+00  8.909E+00  6.682E-02  1.864E+00
   1    3    7     3     3    1.4684E+00  1.9718E-01   1.2712E+00  0.000E+00  0.000E+00  0.000E+00  1.06987E+03  1.555E+00  8.218E+00  5.547E-02  1.777E+00
   1    4    8     3     4    1.2712E+00  2.2567E-01   1.0456E+00  0.000E+00  0.000E+00  0.000E+00  1.06682E+03  1.364E+00  7.455E+00  6.709E-02  1.682E+00
   1    5    8     3     5    1.0456E+00  1.5790E-01   8.8768E-01  0.000E+00  0.000E+00  0.000E+00  1.06362E+03  1.164E+00  6.655E+00  4.991E-02  1.582E+00
   1    6    8     3     6    8.8768E-01  5.5980E-02   8.3170E-01  0.000E+00  0.000E+00  0.000E+00  1.06158E+03  1.036E+00  6.145E+00  1.844E-02  1.518E+00
   1    5   10     4     1    1.0000E+01  9.0919E-02   9.9091E+00  0.000E+00  0.000E+00  0.000E+00  1.07836E+03  6.368E-01  1.000E+01  2.500E-02  1.212E+00
   1    5    9     4     2    9.9091E+00  1.8158E-01   9.7275E+00  0.000E+00  0.000E+00  0.000E+00  1.07154E+03  6.315E-01  1.000E+01  5.000E-02  1.211E+00
   1    6    8     4     3    9.7275E+00  1.2689E-01   9.6006E+00  0.000E+00  0.000E+00  0.000E+00  1.06381E+03  6.256E-01  1.000E+01  3.500E-02  1.209E+00
   1    6    8     5     1    1.0432E+01  2.2686E-01   1.0205E+01  0.000E+00  0.000E+00  0.000E+00  1.05868E+03  6.790E-01  1.542E+01  6.166E-02  1.226E+00
   1    7    7     5     2    1.0205E+01  2.7894E-01   9.9265E+00  0.000E+00  0.000E+00  0.000E+00  1.05417E+03  6.732E-01  1.519E+01  7.594E-02  1.224E+00
   1    8    7     5     3    9.9265E+00  1.9221E-01   9.7343E+00  0.000E+00  0.000E+00  0.000E+00  1.04992E+03  6.676E-01  1.497E+01  5.241E-02  1.223E+00
   1    8    6     5     4    9.7343E+00  1.3577E-01   9.5985E+00  0.000E+00  0.000E+00  0.000E+00  1.04691E+03  6.637E-01  1.482E+01  3.706E-02  1.221E+00
   1    9    6     6     1    9.5985E+00  2.2097E-01   9.3776E+00  0.000E+00  0.000E+00  0.000E+00  1.04341E+03  6.828E-01  1.200E+01  6.000E-02  1.228E+00
   1   10    7     6     2    9.3776E+00  2.2039E-01   9.1572E+00  0.000E+00  0.000E+00  0.000E+00  1.03885E+03  6.732E-01  1.200E+01  6.000E-02  1.224E+00
   1   11    7     6     3    9.1572E+00  2.1981E-01   8.9374E+00  0.000E+00  0.000E+00  0.000E+00  1.03430E+03  6.636E-01  1.200E+01  6.000E-02  1.221E+00
   1   12    7     6     4    8.9374E+00  2.1923E-01   8.7181E+00  0.000E+00  0.000E+00  0.000E+00  1.02974E+03  6.539E-01  1.200E+01  6.000E-02  1.218E+00
   1   13    7     6     5    8.7181E+00 -7.0870E-02   8.7890E+00  0.000E+00  0.000E+00  0.000E+00  1.02656E+03  6.506E-01  1.200E+01  2.400E-01 -9.843E-02
   1   14    9     7     1    1.5000E+02  1.3680E+00   1.4863E+02  0.000E+00  0.000E+00  0.000E+00  1.03987E+03  2.288E+00  5.529E+01  5.593E-01  8.153E-01
   1   13    8     7     2    1.4863E+02  1.9151E+00   1.4672E+02  0.000E+00  0.000E+00  0.000E+00  1.03478E+03  2.279E+00  5.526E+01  6.148E-01  1.038E+00
   1   13    7     7     3    1.4672E+02  1.5825E+00   1.4513E+02  0.000E+00  0.000E+00  0.000E+00  1.02969E+03  2.270E+00  5.521E+01  5.584E-01  9.447E-01
   1   13    6     8     1    1.5392E+02  9.3279E-01   1.5299E+02  0.000E+00  0.000E+00  0.000E+00  1.02472E+03  2.841E+00  4.119E+01  4.198E-01  7.407E-01
   1   13    5     8     2    1.5299E+02  1.9418E-01   1.5280E+02  0.000E+00  0.000E+00  0.000E+00  1.01846E+03  2.837E+00  4.114E+01  4.192E-01  1.544E-01
   1   13    4     8     3    1.5280E+02 -2.4222E+00   1.5522E+02  0.000E+00  0.000E+00  0.000E+00  1.01222E+03  2.845E+00  4.125E+01  4.204E+00 -1.921E-01
   1   13    3     8     4    1.5522E+02 -3.6811E+00   1.5890E+02  0.000E+00  0.000E+00  0.000E+00  1.00599E+03  2.866E+00  4.155E+01  4.235E+00 -2.898E-01
   1   13    2     8     5    1.5890E+02 -2.6823E+00   1.6158E+02  0.000E+00  0.000E+00  0.000E+00  9.99762E+02  2.887E+00  4.187E+01  4.267E+00 -2.096E-01
   1   13    1     8     6    1.6158E+02 -2.0686E+00   1.6365E+02  0.000E+00  0.000E+00  0.000E+00  9.94778E+02  2.903E+00  4.210E+01  2.574E+00 -2.679E-01
   1    8    6     9     1    2.3480E+01  0.0000E+00   2.3480E+01  0.000E+00  0.000E+00  0.000E+00  1.08253E+03  3.782E+00  4.000E+00  0.000E+00  2.261E+00
   1    8    5     9     2    2.3480E+01  0.0000E+00   2.3480E+01  0.000E+00  0.000E+00  0.000E+00  1.08203E+03  3.782E+00  4.000E+00  0.000E+00  2.261E+00



 UBDSV3 SAVING "           GW ET" ON UNIT  61 AT TIME STEP 1, STRESS PERIOD 8
 UBDSV3 SAVING "    UZF RECHARGE" ON UNIT  61 AT TIME STEP 1, STRESS PERIOD 8
 UBDSV3 SAVING " SURFACE LEAKAGE" ON UNIT  61 AT TIME STEP 1, STRESS PERIOD 8
 UBDSV3 SAVING "       HORT+DUNN" ON UNIT  61 AT TIME STEP 1, STRESS PERIOD 8
 UBDSV3 SAVING "  STORAGE CHANGE" ON UNIT  61 AT TIME STEP 1, STRESS PERIOD 8


UNSATURATED ZONE PACKAGE VOLUMETRIC BUDGET FOR  TIME STEP     1 STRESS PERIOD    8
  ------------------------------------------------------------------------------



     CUMULATIVE VOLUMES      L**3       RATES FOR THIS TIME STEP      L**3/T
     ------------------                 ------------------------

           IN:                                      IN:
           ---                                      ---
        INFILTRATION =   117386256.6631          INFILTRATION =          98.3384

          OUT:                                     OUT:
          ----                                     ----
              UZF ET =   109367601.5040                UZF ET =          60.8175
        UZF RECHARGE =       73224.0000          UZF RECHARGE =       0.0000E+00

            IN - OUT =     7945431.1591              IN - OUT =          37.5209

          STORAGE:                                 STORAGE:
          --------                                 --------
      STORAGE CHANGE =     7945736.8498        STORAGE CHANGE =          37.5209

 PERCENT DISCREPANCY IS DIFFERENCE BETWEEN IN-OUT MINUS CHANGE IN STORAGE
 DIVIDED BY THE AVERAGE OF IN AND OUT TIMES 100

 PERCENT DISCREPANCY =          -0.00     PERCENT DISCREPANCY =           0.00






 

            AG WELLS      PERIOD    8   STEP   1
 AG WELL      1   LAYER   1   ROW     6   COL     4   RATE    -12.3351    
 AG WELL      2   LAYER   1   ROW     6   COL     5   RATE    -12.3351    
 AG WELL      3   LAYER   1   ROW     7   COL     4   RATE    -12.3351    
 AG WELL      4   LAYER   1   ROW     7   COL     5   RATE    -12.3351    
 AG WELL      5   LAYER   1   ROW     8   COL     4   RATE    -12.3351    
 AG WELL      6   LAYER   1   ROW     8   COL     5   RATE    -12.3351    
 
 

   DIVERSION SEGMENTS     PERIOD    8   STEP   1
 SEGMENT      9   RATE     23.4796    
 
 

        SW IRRIGATION     PERIOD    8   STEP   1
 SEGMENT      9   ROW     6   COL     4   RATE     3.91334    
 SEGMENT      9   ROW     6   COL     5   RATE     3.91334    
 SEGMENT      9   ROW     7   COL     4   RATE     3.91334    
 SEGMENT      9   ROW     7   COL     5   RATE     3.91334    
 SEGMENT      9   ROW     8   COL     4   RATE     3.91334    
 SEGMENT      9   ROW     8   COL     5   RATE     3.91334    
 
 

        GW IRRIGATION     PERIOD    8   STEP   1
 AG WELL      1   ROW     6   COL     4   RATE     12.3351    
 AG WELL      2   ROW     6   COL     5   RATE     12.3351    
 AG WELL      3   ROW     7   COL     4   RATE     12.3351    
 AG WELL      4   ROW     7   COL     5   RATE     12.3351    
 AG WELL      5   ROW     8   COL     4   RATE     12.3351    
 AG WELL      6   ROW     8   COL     5   RATE     12.3351    
 
1
  VOLUMETRIC BUDGET FOR AGRICULTURAL FIELDS AT  END OF TIME STEP    1, STRESS PERIOD   8
  ------------------------------------------------------------------------------

     CUMULATIVE VOLUMES      L**3       RATES FOR THIS TIME STEP      L**3/T
     ------------------                 ------------------------

           IN:                                      IN:
           ---                                      ---
               AG WELLS  =    18692450.0000                 AG WELLS  =          74.0109
      DIVERSION SEGMENTS =    85201400.0000        DIVERSION SEGMENTS =          23.4796
       IRRIGATION PONDS  =           0.0000         IRRIGATION PONDS  =           0.0000
           GW IRRIGATION =           0.0000             GW IRRIGATION =           0.0000
           SW IRRIGATION =           0.0000             SW IRRIGATION =           0.0000
        SYSTEM LOSSES GW =           0.0000          SYSTEM LOSSES GW =           0.0000
        SYSTEM LOSSES SW =           0.0000          SYSTEM LOSSES SW =           0.0000

                TOTAL IN =   103893848.0000                  TOTAL IN =          97.4904

          OUT:                                     OUT:
          ----                                     ----
               AG WELLS  =           0.0000                 AG WELLS  =           0.0000
      DIVERSION SEGMENTS =           0.0000        DIVERSION SEGMENTS =           0.0000
       IRRIGATION PONDS  =           0.0000         IRRIGATION PONDS  =           0.0000
           GW IRRIGATION =    18692450.0000             GW IRRIGATION =          74.0109
           SW IRRIGATION =    85203096.0000             SW IRRIGATION =          23.4801
        SYSTEM LOSSES GW =           0.0000          SYSTEM LOSSES GW =           0.0000
        SYSTEM LOSSES SW =           0.0000          SYSTEM LOSSES SW =           0.0000

               TOTAL OUT =   103895544.0000                 TOTAL OUT =          97.4909

                IN - OUT =       -1696.0000                  IN - OUT =      -4.6539E-04

     PERCENT DISCREPANCY =          -0.00         PERCENT DISCREPANCY =          -0.00



1
  VOLUMETRIC BUDGET FOR ENTIRE MODEL AT END OF TIME STEP    1, STRESS PERIOD   8
  ------------------------------------------------------------------------------

     CUMULATIVE VOLUMES      L**3       RATES FOR THIS TIME STEP      L**3/T
     ------------------                 ------------------------

           IN:                                      IN:
           ---                                      ---
             STORAGE     =    31631630.0000               STORAGE     =          74.1126
       CONSTANT HEAD     =           0.0000         CONSTANT HEAD     =           0.0000
     HEAD DEP BOUNDS     =     4592712.0000       HEAD DEP BOUNDS     =           0.2880
      STREAM LEAKAGE     =   189106288.0000        STREAM LEAKAGE     =          11.9200
        UZF RECHARGE     =       73223.9531          UZF RECHARGE     =           0.0000
               GW ET     =           0.0000                 GW ET     =           0.0000
     SURFACE LEAKAGE     =           0.0000       SURFACE LEAKAGE     =           0.0000
           AG WELLS      =           0.0000             AG WELLS      =           0.0000

                TOTAL IN =   225403840.0000                  TOTAL IN =          86.3205

          OUT:                                     OUT:
          ----                                     ----
             STORAGE     =    38024604.0000               STORAGE     =           1.0963
       CONSTANT HEAD     =           0.0000         CONSTANT HEAD     =           0.0000
     HEAD DEP BOUNDS     =     4603921.0000       HEAD DEP BOUNDS     =           0.2881
      STREAM LEAKAGE     =   164086080.0000        STREAM LEAKAGE     =          10.9251
        UZF RECHARGE     =           0.0000          UZF RECHARGE     =           0.0000
               GW ET     =           0.0000                 GW ET     =           0.0000
     SURFACE LEAKAGE     =           0.0000       SURFACE LEAKAGE     =           0.0000
           AG WELLS      =    18692450.0000             AG WELLS      =          74.0109

               TOTAL OUT =   225407056.0000                 TOTAL OUT =          86.3204

                IN - OUT =       -3216.0000                  IN - OUT =       3.8147E-05

     PERCENT DISCREPANCY =          -0.00         PERCENT DISCREPANCY =           0.00






         TIME SUMMARY AT END OF TIME STEP    1 IN STRESS PERIOD    8
                    SECONDS     MINUTES      HOURS       DAYS        YEARS
                    -----------------------------------------------------------
   TIME STEP LENGTH  87667.      1461.1      24.352      1.0147     2.77799E-03
 STRESS PERIOD TIME  87667.      1461.1      24.352      1.0147     2.77799E-03
         TOTAL TIME 1.59541E+07 2.65901E+05  4431.7      184.65     0.50555    
1
 
 SOLVING FOR HEAD 
                                                   Max.-Head-Change                         Max.-Flux-Residual
  Residual-Control   Outer-Iter.   Inner-Iter.     Column Row Layer    Maximum-Head-Change  Column Row Layer    Maximum-Flux-Residual          L2-NORM 
          0                 1           2             5    6     1       0.1096054965E-01       5    6    1         0.5959015306E+00      0.1508175321E+01
          0                 2           2             4    7     1      -0.2924739114E-01       5    6    1        -0.1600290077E+01      0.3914198291E+01
          0                 3           2             4    7     1      -0.4215657314E-01       4    7    1        -0.2262792152E+01      0.5564857040E+01
          0                 4           2             4    7     1       0.4386875838E-01       4    7    1         0.2420485433E+01      0.5929165756E+01
          0                 5           2             4    7     1      -0.1869525877E-01       4    8    1        -0.1060286850E+01      0.2597095655E+01
          0                 6           2             4    7     1       0.2306895359E-03       4    8    1         0.1345148098E-01      0.3294787494E-01
          0                 7           1             4    7     1       0.3390698893E-05       5    8    1         0.1979756548E-03      0.4854311968E-03

    ------------------------------------------------
       NWT REQUIRED            7 OUTER ITERATIONS 
       AND A TOTAL OF         13 INNER ITERATIONS.
    ------------------------------------------------

 NO OUTPUT CONTROL FOR STRESS PERIOD    8   TIME STEP    2
 
 SOLVING FOR HEAD 
                                                   Max.-Head-Change                         Max.-Flux-Residual
  Residual-Control   Outer-Iter.   Inner-Iter.     Column Row Layer    Maximum-Head-Change  Column Row Layer    Maximum-Flux-Residual          L2-NORM 
          0                 1           2             5    6     1       0.1182554457E-01       5    6    1         0.6431846225E+00      0.1608613440E+01
          0                 2           2             4    7     1      -0.9490794681E-01       5    6    1        -0.5127613778E+01      0.1256517174E+02
          0                 3           2             4    7     1      -0.4837933136E+00       4    7    1        -0.2596758770E+02      0.6360408578E+02
          0                 4           2             4    7     1       0.3294778028E-01       4    7    1         0.1817875872E+01      0.4451995692E+01
          0                 5           2             4    7     1      -0.1311340734E-02       4    7    1        -0.7436641775E-01      0.1821288323E+00
          0                 6           1             4    7     1       0.1618139335E-04       4    7    1         0.9429581364E-03      0.2319817666E-02

    ------------------------------------------------
       NWT REQUIRED            6 OUTER ITERATIONS 
       AND A TOTAL OF         11 INNER ITERATIONS.
    ------------------------------------------------

 NO OUTPUT CONTROL FOR STRESS PERIOD    8   TIME STEP    3
 
 SOLVING FOR HEAD 
                                                   Max.-Head-Change                         Max.-Flux-Residual
  Residual-Control   Outer-Iter.   Inner-Iter.     Column Row Layer    Maximum-Head-Change  Column Row Layer    Maximum-Flux-Residual          L2-NORM 
          0                 1           2             5    8     1       0.2754821262E-01       5    8    1         0.1510964816E+01      0.3370553335E+01
          0                 2           2             5    8     1      -0.4262562199E-02       5    8    1        -0.2381754428E+00      0.5350486444E+00
          0                 3           2             4    7     1      -0.6907799845E-01       4    7    1        -0.3707879153E+01      0.9116125298E+01
          0                 4           2             4    7     1       0.7014901759E-01       4    7    1         0.3870496780E+01      0.9480451068E+01
          0                 5           2             4    7     1      -0.4053275926E-02       5    8    1        -0.2299103291E+00      0.5631595106E+00
          0                 6           2             4    7     1      -0.1530248611E-01       4    7    1        -0.8678431941E+00      0.2125770825E+01
          0                 7           2             4    7     1      -0.1451316594E-01       4    7    1        -0.8230698013E+00      0.2016088772E+01
          0                 8           2             4    7     1       0.1793675320E-03       5    8    1         0.1046463258E-01      0.2563882425E-01
          0                 9           1             4    7     1       0.2632883182E-05       5    8    1         0.1536056234E-03      0.3763860083E-03

    ------------------------------------------------
       NWT REQUIRED            9 OUTER ITERATIONS 
       AND A TOTAL OF         17 INNER ITERATIONS.
    ------------------------------------------------

 NO OUTPUT CONTROL FOR STRESS PERIOD    8   TIME STEP    4
 
 SOLVING FOR HEAD 
                                                   Max.-Head-Change                         Max.-Flux-Residual
  Residual-Control   Outer-Iter.   Inner-Iter.     Column Row Layer    Maximum-Head-Change  Column Row Layer    Maximum-Flux-Residual          L2-NORM 
          0                 1           2             5    8     1       0.2715812824E-01       5    8    1         0.1488477871E+01      0.3350685172E+01
          0                 2           2             4    7     1      -0.9224418887E-01       5    8    1        -0.5049396613E+01      0.1230904132E+02
          0                 3           2             4    7     1      -0.4856327215E+00       4    7    1        -0.2606623639E+02      0.6383903243E+02
          0                 4           2             4    7     1       0.3307323752E-01       5    8    1         0.1848955244E+01      0.4479023357E+01
          0                 5           2             4    7     1      -0.1316333470E-02       5    8    1        -0.7561629069E-01      0.1832328804E+00
          0                 6           1             4    7     1       0.1624300253E-04       5    8    1         0.9573471125E-03      0.2332276331E-02

    ------------------------------------------------
       NWT REQUIRED            6 OUTER ITERATIONS 
       AND A TOTAL OF         11 INNER ITERATIONS.
    ------------------------------------------------

 OUTPUT CONTROL FOR STRESS PERIOD    8   TIME STEP    5
    PRINT BUDGET
    SAVE BUDGET
 UBDSV1 SAVING "         STORAGE" ON UNIT 102 AT TIME STEP 5, STRESS PERIOD 8
 UBDSV2 SAVING "   CONSTANT HEAD" ON UNIT 102 AT TIME STEP 5, STRESS PERIOD 8
 UBDSV1 SAVING "FLOW RIGHT FACE " ON UNIT 102 AT TIME STEP 5, STRESS PERIOD 8
 UBDSV1 SAVING "FLOW FRONT FACE " ON UNIT 102 AT TIME STEP 5, STRESS PERIOD 8

  HEAD DEP BOUNDS   PERIOD    8   STEP     5
 BOUNDARY      1   LAYER   1   ROW    13   COL     1   RATE   -0.287866    
 BOUNDARY      2   LAYER   1   ROW    14   COL     9   RATE    0.287954    



 STREAM LISTING     PERIOD      8   STEP        5

 LAYER ROW COL. STREAM  RCH.  FLOW INTO     FLOW TO   FLOW OUT OF   OVRLND.     DIRECT     STREAM       STREAM     STREAM     STREAM   STREAMBED  STREAMBED
                SEG.NO.  NO.  STRM. RCH.    AQUIFER    STRM. RCH.    RUNOFF     PRECIP       ET          HEAD       DEPTH      WIDTH   CONDCTNC.   GRADIENT

   1    1    1     1     1    2.8125E+01  2.5915E-01   2.7866E+01  0.000E+00  0.000E+00  0.000E+00  1.09427E+03  1.223E+00  1.364E+01  6.137E-02  1.408E+00
   1    2    2     1     2    2.7866E+01  4.0087E-01   2.7465E+01  0.000E+00  0.000E+00  0.000E+00  1.08928E+03  1.218E+00  1.358E+01  9.503E-02  1.406E+00
   1    3    3     1     3    2.7465E+01  3.4143E-01   2.7124E+01  0.000E+00  0.000E+00  0.000E+00  1.08363E+03  1.213E+00  1.351E+01  8.104E-02  1.404E+00
   1    3    4     1     4    2.7124E+01  3.1403E-01   2.6810E+01  0.000E+00  0.000E+00  0.000E+00  1.07862E+03  1.209E+00  1.344E+01  7.461E-02  1.403E+00
   1    4    5     2     1    2.4810E+01  3.2739E-01   2.4482E+01  0.000E+00  0.000E+00  0.000E+00  1.07313E+03  1.197E+00  1.200E+01  7.800E-02  1.399E+00
   1    5    6     2     2    2.4482E+01  2.5133E-01   2.4231E+01  0.000E+00  0.000E+00  0.000E+00  1.06770E+03  1.189E+00  1.200E+01  6.000E-02  1.396E+00
   1    6    6     2     3    2.4231E+01  2.5089E-01   2.3980E+01  0.000E+00  0.000E+00  0.000E+00  1.06297E+03  1.181E+00  1.200E+01  6.000E-02  1.394E+00
   1    7    6     2     4    2.3980E+01  2.5044E-01   2.3730E+01  0.000E+00  0.000E+00  0.000E+00  1.05825E+03  1.174E+00  1.200E+01  6.000E-02  1.391E+00
   1    8    6     2     5    2.3730E+01  2.5000E-01   2.3480E+01  0.000E+00  0.000E+00  0.000E+00  1.05353E+03  1.167E+00  1.200E+01  6.000E-02  1.389E+00
   1    3    5     3     1    2.0000E+00  2.8252E-01   1.7175E+00  0.000E+00  0.000E+00  0.000E+00  1.07555E+03  1.909E+00  9.636E+00  7.227E-02  1.955E+00
   1    3    6     3     2    1.7175E+00  2.4905E-01   1.4684E+00  0.000E+00  0.000E+00  0.000E+00  1.07264E+03  1.727E+00  8.909E+00  6.682E-02  1.864E+00
   1    3    7     3     3    1.4684E+00  1.9718E-01   1.2712E+00  0.000E+00  0.000E+00  0.000E+00  1.06987E+03  1.555E+00  8.218E+00  5.547E-02  1.777E+00
   1    4    8     3     4    1.2712E+00  2.2567E-01   1.0456E+00  0.000E+00  0.000E+00  0.000E+00  1.06682E+03  1.364E+00  7.455E+00  6.709E-02  1.682E+00
   1    5    8     3     5    1.0456E+00  1.5790E-01   8.8768E-01  0.000E+00  0.000E+00  0.000E+00  1.06362E+03  1.164E+00  6.655E+00  4.991E-02  1.582E+00
   1    6    8     3     6    8.8768E-01  5.5980E-02   8.3170E-01  0.000E+00  0.000E+00  0.000E+00  1.06158E+03  1.036E+00  6.145E+00  1.844E-02  1.518E+00
   1    5   10     4     1    1.0000E+01  9.0919E-02   9.9091E+00  0.000E+00  0.000E+00  0.000E+00  1.07836E+03  6.368E-01  1.000E+01  2.500E-02  1.212E+00
   1    5    9     4     2    9.9091E+00  1.8158E-01   9.7275E+00  0.000E+00  0.000E+00  0.000E+00  1.07154E+03  6.315E-01  1.000E+01  5.000E-02  1.211E+00
   1    6    8     4     3    9.7275E+00  1.2689E-01   9.6006E+00  0.000E+00  0.000E+00  0.000E+00  1.06381E+03  6.256E-01  1.000E+01  3.500E-02  1.209E+00
   1    6    8     5     1    1.0432E+01  2.2686E-01   1.0205E+01  0.000E+00  0.000E+00  0.000E+00  1.05868E+03  6.790E-01  1.542E+01  6.166E-02  1.226E+00
   1    7    7     5     2    1.0205E+01  2.7894E-01   9.9265E+00  0.000E+00  0.000E+00  0.000E+00  1.05417E+03  6.732E-01  1.519E+01  7.594E-02  1.224E+00
   1    8    7     5     3    9.9265E+00  1.9221E-01   9.7343E+00  0.000E+00  0.000E+00  0.000E+00  1.04992E+03  6.676E-01  1.497E+01  5.241E-02  1.223E+00
   1    8    6     5     4    9.7343E+00  1.3577E-01   9.5985E+00  0.000E+00  0.000E+00  0.000E+00  1.04691E+03  6.637E-01  1.482E+01  3.706E-02  1.221E+00
   1    9    6     6     1    9.5985E+00  2.2097E-01   9.3776E+00  0.000E+00  0.000E+00  0.000E+00  1.04341E+03  6.828E-01  1.200E+01  6.000E-02  1.228E+00
   1   10    7     6     2    9.3776E+00  2.2039E-01   9.1572E+00  0.000E+00  0.000E+00  0.000E+00  1.03885E+03  6.732E-01  1.200E+01  6.000E-02  1.224E+00
   1   11    7     6     3    9.1572E+00  2.1981E-01   8.9374E+00  0.000E+00  0.000E+00  0.000E+00  1.03430E+03  6.636E-01  1.200E+01  6.000E-02  1.221E+00
   1   12    7     6     4    8.9374E+00  2.1923E-01   8.7181E+00  0.000E+00  0.000E+00  0.000E+00  1.02974E+03  6.539E-01  1.200E+01  6.000E-02  1.218E+00
   1   13    7     6     5    8.7181E+00 -7.0091E-02   8.7882E+00  0.000E+00  0.000E+00  0.000E+00  1.02656E+03  6.505E-01  1.200E+01  2.400E-01 -9.735E-02
   1   14    9     7     1    1.5000E+02  1.3681E+00   1.4863E+02  0.000E+00  0.000E+00  0.000E+00  1.03987E+03  2.288E+00  5.529E+01  5.593E-01  8.153E-01
   1   13    8     7     2    1.4863E+02  1.9151E+00   1.4672E+02  0.000E+00  0.000E+00  0.000E+00  1.03478E+03  2.279E+00  5.526E+01  6.148E-01  1.038E+00
   1   13    7     7     3    1.4672E+02  1.5843E+00   1.4513E+02  0.000E+00  0.000E+00  0.000E+00  1.02969E+03  2.270E+00  5.521E+01  5.584E-01  9.457E-01
   1   13    6     8     1    1.5392E+02  9.3415E-01   1.5299E+02  0.000E+00  0.000E+00  0.000E+00  1.02472E+03  2.841E+00  4.119E+01  4.198E-01  7.418E-01
   1   13    5     8     2    1.5299E+02  1.9560E-01   1.5279E+02  0.000E+00  0.000E+00  0.000E+00  1.01846E+03  2.837E+00  4.114E+01  4.192E-01  1.555E-01
   1   13    4     8     3    1.5279E+02 -2.3952E+00   1.5519E+02  0.000E+00  0.000E+00  0.000E+00  1.01222E+03  2.845E+00  4.125E+01  4.203E+00 -1.899E-01
   1   13    3     8     4    1.5519E+02 -3.6549E+00   1.5884E+02  0.000E+00  0.000E+00  0.000E+00  1.00599E+03  2.866E+00  4.155E+01  4.234E+00 -2.877E-01
   1   13    2     8     5    1.5884E+02 -2.6522E+00   1.6149E+02  0.000E+00  0.000E+00  0.000E+00  9.99762E+02  2.887E+00  4.186E+01  4.266E+00 -2.072E-01
   1   13    1     8     6    1.6149E+02 -2.0527E+00   1.6355E+02  0.000E+00  0.000E+00  0.000E+00  9.94778E+02  2.903E+00  4.209E+01  2.574E+00 -2.659E-01
   1    8    6     9     1    2.3480E+01  0.0000E+00   2.3480E+01  0.000E+00  0.000E+00  0.000E+00  1.08253E+03  3.782E+00  4.000E+00  0.000E+00  2.261E+00
   1    8    5     9     2    2.3480E+01  0.0000E+00   2.3480E+01  0.000E+00  0.000E+00  0.000E+00  1.08203E+03  3.782E+00  4.000E+00  0.000E+00  2.261E+00



 UBDSV3 SAVING "           GW ET" ON UNIT  61 AT TIME STEP 5, STRESS PERIOD 8
 UBDSV3 SAVING "    UZF RECHARGE" ON UNIT  61 AT TIME STEP 5, STRESS PERIOD 8
 UBDSV3 SAVING " SURFACE LEAKAGE" ON UNIT  61 AT TIME STEP 5, STRESS PERIOD 8
 UBDSV3 SAVING "       HORT+DUNN" ON UNIT  61 AT TIME STEP 5, STRESS PERIOD 8
 UBDSV3 SAVING "  STORAGE CHANGE" ON UNIT  61 AT TIME STEP 5, STRESS PERIOD 8


UNSATURATED ZONE PACKAGE VOLUMETRIC BUDGET FOR  TIME STEP     5 STRESS PERIOD    8
  ------------------------------------------------------------------------------



     CUMULATIVE VOLUMES      L**3       RATES FOR THIS TIME STEP      L**3/T
     ------------------                 ------------------------

           IN:                                      IN:
           ---                                      ---
        INFILTRATION =   161307937.7091          INFILTRATION =         212.2070

          OUT:                                     OUT:
          ----                                     ----
              UZF ET =   130696283.1125                UZF ET =          60.8175
        UZF RECHARGE =       73224.0000          UZF RECHARGE =       0.0000E+00

            IN - OUT =    30538430.5966              IN - OUT =         151.3895

          STORAGE:                                 STORAGE:
          --------                                 --------
      STORAGE CHANGE =    30538735.7870        STORAGE CHANGE =         151.3894

 PERCENT DISCREPANCY IS DIFFERENCE BETWEEN IN-OUT MINUS CHANGE IN STORAGE
 DIVIDED BY THE AVERAGE OF IN AND OUT TIMES 100

 PERCENT DISCREPANCY =          -0.00     PERCENT DISCREPANCY =           0.00






 

            AG WELLS      PERIOD    8   STEP   5
 AG WELL      1   LAYER   1   ROW     6   COL     4   RATE    -31.3132    
 AG WELL      2   LAYER   1   ROW     6   COL     5   RATE    -31.3132    
 AG WELL      3   LAYER   1   ROW     7   COL     4   RATE    -31.3132    
 AG WELL      4   LAYER   1   ROW     7   COL     5   RATE    -31.3132    
 AG WELL      5   LAYER   1   ROW     8   COL     4   RATE    -31.3132    
 AG WELL      6   LAYER   1   ROW     8   COL     5   RATE    -31.3132    
 
 

   DIVERSION SEGMENTS     PERIOD    8   STEP   5
 SEGMENT      9   RATE     23.4796    
 
 

        SW IRRIGATION     PERIOD    8   STEP   5
 SEGMENT      9   ROW     6   COL     4   RATE     3.91334    
 SEGMENT      9   ROW     6   COL     5   RATE     3.91334    
 SEGMENT      9   ROW     7   COL     4   RATE     3.91334    
 SEGMENT      9   ROW     7   COL     5   RATE     3.91334    
 SEGMENT      9   ROW     8   COL     4   RATE     3.91334    
 SEGMENT      9   ROW     8   COL     5   RATE     3.91334    
 
 

        GW IRRIGATION     PERIOD    8   STEP   5
 AG WELL      1   ROW     6   COL     4   RATE     31.3132    
 AG WELL      2   ROW     6   COL     5   RATE     31.3132    
 AG WELL      3   ROW     7   COL     4   RATE     31.3132    
 AG WELL      4   ROW     7   COL     5   RATE     31.3132    
 AG WELL      5   ROW     8   COL     4   RATE     31.3132    
 AG WELL      6   ROW     8   COL     5   RATE     31.3132    
 
1
  VOLUMETRIC BUDGET FOR AGRICULTURAL FIELDS AT  END OF TIME STEP    5, STRESS PERIOD   8
  ------------------------------------------------------------------------------

     CUMULATIVE VOLUMES      L**3       RATES FOR THIS TIME STEP      L**3/T
     ------------------                 ------------------------

           IN:                                      IN:
           ---                                      ---
               AG WELLS  =    54083272.0000                 AG WELLS  =         187.8794
      DIVERSION SEGMENTS =    93434904.0000        DIVERSION SEGMENTS =          23.4796
       IRRIGATION PONDS  =           0.0000         IRRIGATION PONDS  =           0.0000
           GW IRRIGATION =           0.0000             GW IRRIGATION =           0.0000
           SW IRRIGATION =           0.0000             SW IRRIGATION =           0.0000
        SYSTEM LOSSES GW =           0.0000          SYSTEM LOSSES GW =           0.0000
        SYSTEM LOSSES SW =           0.0000          SYSTEM LOSSES SW =           0.0000

                TOTAL IN =   147518176.0000                  TOTAL IN =         211.3590

          OUT:                                     OUT:
          ----                                     ----
               AG WELLS  =           0.0000                 AG WELLS  =           0.0000
      DIVERSION SEGMENTS =           0.0000        DIVERSION SEGMENTS =           0.0000
       IRRIGATION PONDS  =           0.0000         IRRIGATION PONDS  =           0.0000
           GW IRRIGATION =    54083272.0000             GW IRRIGATION =         187.8794
           SW IRRIGATION =    93436760.0000             SW IRRIGATION =          23.4801
        SYSTEM LOSSES GW =           0.0000          SYSTEM LOSSES GW =           0.0000
        SYSTEM LOSSES SW =           0.0000          SYSTEM LOSSES SW =           0.0000

               TOTAL OUT =   147520032.0000                 TOTAL OUT =         211.3595

                IN - OUT =       -1856.0000                  IN - OUT =      -4.7302E-04

     PERCENT DISCREPANCY =          -0.00         PERCENT DISCREPANCY =          -0.00



1
  VOLUMETRIC BUDGET FOR ENTIRE MODEL AT END OF TIME STEP    5, STRESS PERIOD   8
  ------------------------------------------------------------------------------

     CUMULATIVE VOLUMES      L**3       RATES FOR THIS TIME STEP      L**3/T
     ------------------                 ------------------------

           IN:                                      IN:
           ---                                      ---
             STORAGE     =    67015112.0000               STORAGE     =         187.7787
       CONSTANT HEAD     =           0.0000         CONSTANT HEAD     =           0.0000
     HEAD DEP BOUNDS     =     4693688.0000       HEAD DEP BOUNDS     =           0.2880
      STREAM LEAKAGE     =   193287264.0000        STREAM LEAKAGE     =          11.9247
        UZF RECHARGE     =       73223.9531          UZF RECHARGE     =           0.0000
               GW ET     =           0.0000                 GW ET     =           0.0000
     SURFACE LEAKAGE     =           0.0000       SURFACE LEAKAGE     =           0.0000
           AG WELLS      =           0.0000             AG WELLS      =           0.0000

                TOTAL IN =   265069280.0000                  TOTAL IN =         199.9913

          OUT:                                     OUT:
          ----                                     ----
             STORAGE     =    38389872.0000               STORAGE     =           0.9990
       CONSTANT HEAD     =           0.0000         CONSTANT HEAD     =           0.0000
     HEAD DEP BOUNDS     =     4704898.5000       HEAD DEP BOUNDS     =           0.2879
      STREAM LEAKAGE     =   167894432.0000        STREAM LEAKAGE     =          10.8250
        UZF RECHARGE     =           0.0000          UZF RECHARGE     =           0.0000
               GW ET     =           0.0000                 GW ET     =           0.0000
     SURFACE LEAKAGE     =           0.0000       SURFACE LEAKAGE     =           0.0000
           AG WELLS      =    54083272.0000             AG WELLS      =         187.8794

               TOTAL OUT =   265072480.0000                 TOTAL OUT =         199.9913

                IN - OUT =       -3200.0000                  IN - OUT =       7.6294E-05

     PERCENT DISCREPANCY =          -0.00         PERCENT DISCREPANCY =           0.00






         TIME SUMMARY AT END OF TIME STEP    5 IN STRESS PERIOD    8
                    SECONDS     MINUTES      HOURS       DAYS        YEARS
                    -----------------------------------------------------------
   TIME STEP LENGTH  87667.      1461.1      24.352      1.0147     2.77799E-03
 STRESS PERIOD TIME 4.38333E+05  7305.6      121.76      5.0733     1.38899E-02
         TOTAL TIME 1.63048E+07 2.71746E+05  4529.1      188.71     0.51667    
1
 
 SOLVING FOR HEAD 
                                                   Max.-Head-Change                         Max.-Flux-Residual
  Residual-Control   Outer-Iter.   Inner-Iter.     Column Row Layer    Maximum-Head-Change  Column Row Layer    Maximum-Flux-Residual          L2-NORM 
          0                 1           2             5    8     1       0.4252010973E-01       5    8    1         0.2337316912E+01      0.5127179725E+01
          0                 2           2             5    8     1      -0.5696373854E-02       5    8    1        -0.3196506791E+00      0.7001054491E+00
          0                 3           2             4    7     1      -0.6917759701E-01       4    7    1        -0.3713285556E+01      0.9123422104E+01
          0                 4           2             4    7     1       0.7020797433E-01       4    7    1         0.3873731192E+01      0.9487959775E+01
          0                 5           2             4    7     1      -0.4183855218E-02       5    8    1        -0.2372970277E+00      0.5812725383E+00
          0                 6           2             4    7     1      -0.1610949244E-01       4    7    1        -0.9136047426E+00      0.2237863379E+01
          0                 7           2             4    7     1       0.1989396708E-03       5    8    1         0.1160762502E-01      0.2843701256E-01
          0                 8           1             4    7     1       0.2922106738E-05       5    8    1         0.1704957622E-03      0.4176904741E-03

    ------------------------------------------------
       NWT REQUIRED            8 OUTER ITERATIONS 
       AND A TOTAL OF         15 INNER ITERATIONS.
    ------------------------------------------------

 NO OUTPUT CONTROL FOR STRESS PERIOD    8   TIME STEP    6
 
 SOLVING FOR HEAD 
                                                   Max.-Head-Change                         Max.-Flux-Residual
  Residual-Control   Outer-Iter.   Inner-Iter.     Column Row Layer    Maximum-Head-Change  Column Row Layer    Maximum-Flux-Residual          L2-NORM 
          0                 1           2             5    8     1       0.4087860373E-01       5    8    1         0.2245126244E+01      0.4975770946E+01
          0                 2           2             5    6     1      -0.9307194149E-01       5    8    1        -0.5125666320E+01      0.1243993010E+02
          0                 3           2             4    7     1      -0.5711879878E+00       4    7    1        -0.3065824391E+02      0.7508163495E+02
          0                 4           2             4    7     1       0.3889941937E-01       4    7    1         0.2146296764E+01      0.5256900417E+01
          0                 5           2             4    7     1      -0.1548220113E-02       5    8    1        -0.8780775849E-01      0.2150964900E+00
          0                 6           1             4    7     1       0.1910438406E-04       5    8    1         0.1113827887E-02      0.2728524965E-02

    ------------------------------------------------
       NWT REQUIRED            6 OUTER ITERATIONS 
       AND A TOTAL OF         11 INNER ITERATIONS.
    ------------------------------------------------

 NO OUTPUT CONTROL FOR STRESS PERIOD    8   TIME STEP    7
 
 SOLVING FOR HEAD 
                                                   Max.-Head-Change                         Max.-Flux-Residual
  Residual-Control   Outer-Iter.   Inner-Iter.     Column Row Layer    Maximum-Head-Change  Column Row Layer    Maximum-Flux-Residual          L2-NORM 
          0                 1           2             5    8     1       0.5811351254E-01       5    8    1         0.3194844999E+01      0.6983997092E+01
          0                 2           2             5    8     1      -0.7306242178E-02       5    8    1        -0.4105269481E+00      0.8917970610E+00
          0                 3           2             4    7     1      -0.6417126267E-01       4    7    1        -0.3444629241E+01      0.8456576131E+01
          0                 4           2             4    7     1       0.6535492494E-01       4    7    1         0.3605941914E+01      0.8831402457E+01
          0                 5           2             4    7     1      -0.1533772679E-01       4    7    1        -0.8698428066E+00      0.2130776775E+01
          0                 6           1             4    7     1       0.4755424470E-04       5    8    1         0.2781796838E-02      0.6864418598E-02

    ------------------------------------------------
       NWT REQUIRED            6 OUTER ITERATIONS 
       AND A TOTAL OF         11 INNER ITERATIONS.
    ------------------------------------------------

 NO OUTPUT CONTROL FOR STRESS PERIOD    8   TIME STEP    8
 
 SOLVING FOR HEAD 
                                                   Max.-Head-Change                         Max.-Flux-Residual
  Residual-Control   Outer-Iter.   Inner-Iter.     Column Row Layer    Maximum-Head-Change  Column Row Layer    Maximum-Flux-Residual          L2-NORM 
          0                 1           2             5    8     1       0.5547715157E-01       5    8    1         0.3047181752E+01      0.6728097362E+01
          0                 2           2             5    6     1      -0.9371909618E-01       5    8    1        -0.5166282314E+01      0.1248315070E+02
          0                 3           2             4    7     1      -0.5393015278E+00       4    7    1        -0.2894659278E+02      0.7088347084E+02
          0                 4           2             4    7     1       0.3672795822E-01       4    7    1         0.2026475109E+01      0.4962976931E+01
          0                 5           2             4    7     1      -0.1461794211E-02       4    7    1        -0.8290438177E-01      0.2030701685E+00
          0                 6           1             4    7     1       0.1803792584E-04       5    8    1         0.1051485336E-02      0.2575973619E-02

    ------------------------------------------------
       NWT REQUIRED            6 OUTER ITERATIONS 
       AND A TOTAL OF         11 INNER ITERATIONS.
    ------------------------------------------------

 NO OUTPUT CONTROL FOR STRESS PERIOD    8   TIME STEP    9
 
 SOLVING FOR HEAD 
                                                   Max.-Head-Change                         Max.-Flux-Residual
  Residual-Control   Outer-Iter.   Inner-Iter.     Column Row Layer    Maximum-Head-Change  Column Row Layer    Maximum-Flux-Residual          L2-NORM 
          0                 1           2             5    8     1       0.7098733044E-01       5    8    1         0.3901220295E+01      0.8557317347E+01
          0                 2           2             5    8     1      -0.8632470798E-02       5    8    1        -0.4852362598E+00      0.1055505832E+01
          0                 3           2             4    7     1      -0.6573879912E-01       4    7    1        -0.3528796660E+01      0.8659319205E+01
          0                 4           2             4    7     1       0.6696501934E-01       4    7    1         0.3694750184E+01      0.9048651058E+01
          0                 5           2             4    7     1      -0.9816038063E-03       4    7    1        -0.5567367004E-01      0.1364880983E+00
          0                 6           2             4    7     1      -0.1482989851E-01       5    6    1        -0.8410222939E+00      0.2060075336E+01
          0                 7           2             4    7     1      -0.1573606760E-02       4    7    1        -0.8923945539E-01      0.2185802584E+00
          0                 8           1             4    7     1      -0.2577970612E-04       4    7    1        -0.1461865850E-02      0.3580953141E-02

    ------------------------------------------------
       NWT REQUIRED            8 OUTER ITERATIONS 
       AND A TOTAL OF         15 INNER ITERATIONS.
    ------------------------------------------------

 OUTPUT CONTROL FOR STRESS PERIOD    8   TIME STEP   10
    PRINT BUDGET
    SAVE BUDGET
 UBDSV1 SAVING "         STORAGE" ON UNIT 102 AT TIME STEP 10, STRESS PERIOD 8
 UBDSV2 SAVING "   CONSTANT HEAD" ON UNIT 102 AT TIME STEP 10, STRESS PERIOD 8
 UBDSV1 SAVING "FLOW RIGHT FACE " ON UNIT 102 AT TIME STEP 10, STRESS PERIOD 8
 UBDSV1 SAVING "FLOW FRONT FACE " ON UNIT 102 AT TIME STEP 10, STRESS PERIOD 8

  HEAD DEP BOUNDS   PERIOD    8   STEP    10
 BOUNDARY      1   LAYER   1   ROW    13   COL     1   RATE   -0.287605    
 BOUNDARY      2   LAYER   1   ROW    14   COL     9   RATE    0.287957    



 STREAM LISTING     PERIOD      8   STEP       10

 LAYER ROW COL. STREAM  RCH.  FLOW INTO     FLOW TO   FLOW OUT OF   OVRLND.     DIRECT     STREAM       STREAM     STREAM     STREAM   STREAMBED  STREAMBED
                SEG.NO.  NO.  STRM. RCH.    AQUIFER    STRM. RCH.    RUNOFF     PRECIP       ET          HEAD       DEPTH      WIDTH   CONDCTNC.   GRADIENT

   1    1    1     1     1    2.8125E+01  2.5915E-01   2.7866E+01  0.000E+00  0.000E+00  0.000E+00  1.09427E+03  1.223E+00  1.364E+01  6.137E-02  1.408E+00
   1    2    2     1     2    2.7866E+01  4.0087E-01   2.7465E+01  0.000E+00  0.000E+00  0.000E+00  1.08928E+03  1.218E+00  1.358E+01  9.503E-02  1.406E+00
   1    3    3     1     3    2.7465E+01  3.4143E-01   2.7124E+01  0.000E+00  0.000E+00  0.000E+00  1.08363E+03  1.213E+00  1.351E+01  8.104E-02  1.404E+00
   1    3    4     1     4    2.7124E+01  3.1403E-01   2.6810E+01  0.000E+00  0.000E+00  0.000E+00  1.07862E+03  1.209E+00  1.344E+01  7.461E-02  1.403E+00
   1    4    5     2     1    2.4810E+01  3.2739E-01   2.4482E+01  0.000E+00  0.000E+00  0.000E+00  1.07313E+03  1.197E+00  1.200E+01  7.800E-02  1.399E+00
   1    5    6     2     2    2.4482E+01  2.5133E-01   2.4231E+01  0.000E+00  0.000E+00  0.000E+00  1.06770E+03  1.189E+00  1.200E+01  6.000E-02  1.396E+00
   1    6    6     2     3    2.4231E+01  2.5089E-01   2.3980E+01  0.000E+00  0.000E+00  0.000E+00  1.06297E+03  1.181E+00  1.200E+01  6.000E-02  1.394E+00
   1    7    6     2     4    2.3980E+01  2.5044E-01   2.3730E+01  0.000E+00  0.000E+00  0.000E+00  1.05825E+03  1.174E+00  1.200E+01  6.000E-02  1.391E+00
   1    8    6     2     5    2.3730E+01  2.5000E-01   2.3480E+01  0.000E+00  0.000E+00  0.000E+00  1.05353E+03  1.167E+00  1.200E+01  6.000E-02  1.389E+00
   1    3    5     3     1    2.0000E+00  2.8252E-01   1.7175E+00  0.000E+00  0.000E+00  0.000E+00  1.07555E+03  1.909E+00  9.636E+00  7.227E-02  1.955E+00
   1    3    6     3     2    1.7175E+00  2.4905E-01   1.4684E+00  0.000E+00  0.000E+00  0.000E+00  1.07264E+03  1.727E+00  8.909E+00  6.682E-02  1.864E+00
   1    3    7     3     3    1.4684E+00  1.9718E-01   1.2712E+00  0.000E+00  0.000E+00  0.000E+00  1.06987E+03  1.555E+00  8.218E+00  5.547E-02  1.777E+00
   1    4    8     3     4    1.2712E+00  2.2567E-01   1.0456E+00  0.000E+00  0.000E+00  0.000E+00  1.06682E+03  1.364E+00  7.455E+00  6.709E-02  1.682E+00
   1    5    8     3     5    1.0456E+00  1.5790E-01   8.8768E-01  0.000E+00  0.000E+00  0.000E+00  1.06362E+03  1.164E+00  6.655E+00  4.991E-02  1.582E+00
   1    6    8     3     6    8.8768E-01  5.5980E-02   8.3170E-01  0.000E+00  0.000E+00  0.000E+00  1.06158E+03  1.036E+00  6.145E+00  1.844E-02  1.518E+00
   1    5   10     4     1    1.0000E+01  9.0919E-02   9.9091E+00  0.000E+00  0.000E+00  0.000E+00  1.07836E+03  6.368E-01  1.000E+01  2.500E-02  1.212E+00
   1    5    9     4     2    9.9091E+00  1.8158E-01   9.7275E+00  0.000E+00  0.000E+00  0.000E+00  1.07154E+03  6.315E-01  1.000E+01  5.000E-02  1.211E+00
   1    6    8     4     3    9.7275E+00  1.2689E-01   9.6006E+00  0.000E+00  0.000E+00  0.000E+00  1.06381E+03  6.256E-01  1.000E+01  3.500E-02  1.209E+00
   1    6    8     5     1    1.0432E+01  2.2686E-01   1.0205E+01  0.000E+00  0.000E+00  0.000E+00  1.05868E+03  6.790E-01  1.542E+01  6.166E-02  1.226E+00
   1    7    7     5     2    1.0205E+01  2.7894E-01   9.9265E+00  0.000E+00  0.000E+00  0.000E+00  1.05417E+03  6.732E-01  1.519E+01  7.594E-02  1.224E+00
   1    8    7     5     3    9.9265E+00  1.9221E-01   9.7343E+00  0.000E+00  0.000E+00  0.000E+00  1.04992E+03  6.676E-01  1.497E+01  5.241E-02  1.223E+00
   1    8    6     5     4    9.7343E+00  1.3577E-01   9.5985E+00  0.000E+00  0.000E+00  0.000E+00  1.04691E+03  6.637E-01  1.482E+01  3.706E-02  1.221E+00
   1    9    6     6     1    9.5985E+00  2.2097E-01   9.3776E+00  0.000E+00  0.000E+00  0.000E+00  1.04341E+03  6.828E-01  1.200E+01  6.000E-02  1.228E+00
   1   10    7     6     2    9.3776E+00  2.2039E-01   9.1572E+00  0.000E+00  0.000E+00  0.000E+00  1.03885E+03  6.732E-01  1.200E+01  6.000E-02  1.224E+00
   1   11    7     6     3    9.1572E+00  2.1981E-01   8.9374E+00  0.000E+00  0.000E+00  0.000E+00  1.03430E+03  6.636E-01  1.200E+01  6.000E-02  1.221E+00
   1   12    7     6     4    8.9374E+00  2.1923E-01   8.7181E+00  0.000E+00  0.000E+00  0.000E+00  1.02974E+03  6.539E-01  1.200E+01  6.000E-02  1.218E+00
   1   13    7     6     5    8.7181E+00 -6.9235E-02   8.7874E+00  0.000E+00  0.000E+00  0.000E+00  1.02656E+03  6.505E-01  1.200E+01  2.400E-01 -9.616E-02
   1   14    9     7     1    1.5000E+02  1.3681E+00   1.4863E+02  0.000E+00  0.000E+00  0.000E+00  1.03987E+03  2.288E+00  5.529E+01  5.593E-01  8.154E-01
   1   13    8     7     2    1.4863E+02  1.9153E+00   1.4672E+02  0.000E+00  0.000E+00  0.000E+00  1.03478E+03  2.279E+00  5.526E+01  6.148E-01  1.039E+00
   1   13    7     7     3    1.4672E+02  1.5863E+00   1.4513E+02  0.000E+00  0.000E+00  0.000E+00  1.02969E+03  2.270E+00  5.521E+01  5.584E-01  9.469E-01
   1   13    6     8     1    1.5392E+02  9.3570E-01   1.5298E+02  0.000E+00  0.000E+00  0.000E+00  1.02472E+03  2.841E+00  4.119E+01  4.198E-01  7.430E-01
   1   13    5     8     2    1.5298E+02  1.9726E-01   1.5278E+02  0.000E+00  0.000E+00  0.000E+00  1.01846E+03  2.837E+00  4.114E+01  4.192E-01  1.569E-01
   1   13    4     8     3    1.5278E+02 -2.3720E+00   1.5516E+02  0.000E+00  0.000E+00  0.000E+00  1.01222E+03  2.845E+00  4.125E+01  4.203E+00 -1.881E-01
   1   13    3     8     4    1.5516E+02 -3.6316E+00   1.5879E+02  0.000E+00  0.000E+00  0.000E+00  1.00599E+03  2.865E+00  4.155E+01  4.234E+00 -2.859E-01
   1   13    2     8     5    1.5879E+02 -2.6249E+00   1.6141E+02  0.000E+00  0.000E+00  0.000E+00  9.99762E+02  2.887E+00  4.185E+01  4.265E+00 -2.051E-01
   1   13    1     8     6    1.6141E+02 -2.0361E+00   1.6345E+02  0.000E+00  0.000E+00  0.000E+00  9.94777E+02  2.902E+00  4.208E+01  2.573E+00 -2.638E-01
   1    8    6     9     1    2.3480E+01  0.0000E+00   2.3480E+01  0.000E+00  0.000E+00  0.000E+00  1.08253E+03  3.782E+00  4.000E+00  0.000E+00  2.261E+00
   1    8    5     9     2    2.3480E+01  0.0000E+00   2.3480E+01  0.000E+00  0.000E+00  0.000E+00  1.08203E+03  3.782E+00  4.000E+00  0.000E+00  2.261E+00



 UBDSV3 SAVING "           GW ET" ON UNIT  61 AT TIME STEP 10, STRESS PERIOD 8
 UBDSV3 SAVING "    UZF RECHARGE" ON UNIT  61 AT TIME STEP 10, STRESS PERIOD 8
 UBDSV3 SAVING " SURFACE LEAKAGE" ON UNIT  61 AT TIME STEP 10, STRESS PERIOD 8
 UBDSV3 SAVING "       HORT+DUNN" ON UNIT  61 AT TIME STEP 10, STRESS PERIOD 8
 UBDSV3 SAVING "  STORAGE CHANGE" ON UNIT  61 AT TIME STEP 10, STRESS PERIOD 8


UNSATURATED ZONE PACKAGE VOLUMETRIC BUDGET FOR  TIME STEP    10 STRESS PERIOD    8
  ------------------------------------------------------------------------------



     CUMULATIVE VOLUMES      L**3       RATES FOR THIS TIME STEP      L**3/T
     ------------------                 ------------------------

           IN:                                      IN:
           ---                                      ---
        INFILTRATION =   210478636.7510          INFILTRATION =          30.5651

          OUT:                                     OUT:
          ----                                     ----
              UZF ET =   157324841.7169                UZF ET =          60.8294
        UZF RECHARGE =       73224.0000          UZF RECHARGE =       0.0000E+00

            IN - OUT =    53080571.0341              IN - OUT =         -30.2644

          STORAGE:                                 STORAGE:
          --------                                 --------
      STORAGE CHANGE =    53080875.7103        STORAGE CHANGE =         -30.2644

 PERCENT DISCREPANCY IS DIFFERENCE BETWEEN IN-OUT MINUS CHANGE IN STORAGE
 DIVIDED BY THE AVERAGE OF IN AND OUT TIMES 100

 PERCENT DISCREPANCY =          -0.00     PERCENT DISCREPANCY =           0.00






 

            AG WELLS      PERIOD    8   STEP  10
 AG WELL      1   LAYER   1   ROW     6   COL     4   RATE    -1.03958    
 AG WELL      2   LAYER   1   ROW     6   COL     5   RATE    -1.03958    
 AG WELL      3   LAYER   1   ROW     7   COL     4   RATE    -1.03958    
 AG WELL      4   LAYER   1   ROW     7   COL     5   RATE    -1.03958    
 AG WELL      5   LAYER   1   ROW     8   COL     4   RATE    -1.03958    
 AG WELL      6   LAYER   1   ROW     8   COL     5   RATE    -1.03958    
 
 

   DIVERSION SEGMENTS     PERIOD    8   STEP  10
 SEGMENT      9   RATE     23.4796    
 
 

        SW IRRIGATION     PERIOD    8   STEP  10
 SEGMENT      9   ROW     6   COL     4   RATE     3.91334    
 SEGMENT      9   ROW     6   COL     5   RATE     3.91334    
 SEGMENT      9   ROW     7   COL     4   RATE     3.91334    
 SEGMENT      9   ROW     7   COL     5   RATE     3.91334    
 SEGMENT      9   ROW     8   COL     4   RATE     3.91334    
 SEGMENT      9   ROW     8   COL     5   RATE     3.91334    
 
 

        GW IRRIGATION     PERIOD    8   STEP  10
 AG WELL      1   ROW     6   COL     4   RATE     1.03958    
 AG WELL      2   ROW     6   COL     5   RATE     1.03958    
 AG WELL      3   ROW     7   COL     4   RATE     1.03958    
 AG WELL      4   ROW     7   COL     5   RATE     1.03958    
 AG WELL      5   ROW     8   COL     4   RATE     1.03958    
 AG WELL      6   ROW     8   COL     5   RATE     1.03958    
 
1
  VOLUMETRIC BUDGET FOR AGRICULTURAL FIELDS AT  END OF TIME STEP   10, STRESS PERIOD   8
  ------------------------------------------------------------------------------

     CUMULATIVE VOLUMES      L**3       RATES FOR THIS TIME STEP      L**3/T
     ------------------                 ------------------------

           IN:                                      IN:
           ---                                      ---
               AG WELLS  =    92590400.0000                 AG WELLS  =           6.2375
      DIVERSION SEGMENTS =   103726784.0000        DIVERSION SEGMENTS =          23.4796
       IRRIGATION PONDS  =           0.0000         IRRIGATION PONDS  =           0.0000
           GW IRRIGATION =           0.0000             GW IRRIGATION =           0.0000
           SW IRRIGATION =           0.0000             SW IRRIGATION =           0.0000
        SYSTEM LOSSES GW =           0.0000          SYSTEM LOSSES GW =           0.0000
        SYSTEM LOSSES SW =           0.0000          SYSTEM LOSSES SW =           0.0000

                TOTAL IN =   196317184.0000                  TOTAL IN =          29.7171

          OUT:                                     OUT:
          ----                                     ----
               AG WELLS  =           0.0000                 AG WELLS  =           0.0000
      DIVERSION SEGMENTS =           0.0000        DIVERSION SEGMENTS =           0.0000
       IRRIGATION PONDS  =           0.0000         IRRIGATION PONDS  =           0.0000
           GW IRRIGATION =    92590400.0000             GW IRRIGATION =           6.2375
           SW IRRIGATION =   103728840.0000             SW IRRIGATION =          23.4801
        SYSTEM LOSSES GW =           0.0000          SYSTEM LOSSES GW =           0.0000
        SYSTEM LOSSES SW =           0.0000          SYSTEM LOSSES SW =           0.0000

               TOTAL OUT =   196319232.0000                 TOTAL OUT =          29.7176

                IN - OUT =       -2048.0000                  IN - OUT =      -4.6921E-04

     PERCENT DISCREPANCY =          -0.00         PERCENT DISCREPANCY =          -0.00



1
  VOLUMETRIC BUDGET FOR ENTIRE MODEL AT END OF TIME STEP   10, STRESS PERIOD   8
  ------------------------------------------------------------------------------

     CUMULATIVE VOLUMES      L**3       RATES FOR THIS TIME STEP      L**3/T
     ------------------                 ------------------------

           IN:                                      IN:
           ---                                      ---
             STORAGE     =   107191568.0000               STORAGE     =          15.6673
       CONSTANT HEAD     =           0.0000         CONSTANT HEAD     =           0.0000
     HEAD DEP BOUNDS     =     4819908.0000       HEAD DEP BOUNDS     =           0.2880
      STREAM LEAKAGE     =   198515664.0000        STREAM LEAKAGE     =          11.9301
        UZF RECHARGE     =       73223.9531          UZF RECHARGE     =           0.0000
               GW ET     =           0.0000                 GW ET     =           0.0000
     SURFACE LEAKAGE     =           0.0000       SURFACE LEAKAGE     =           0.0000
           AG WELLS      =           0.0000             AG WELLS      =           0.0000

                TOTAL IN =   310600352.0000                  TOTAL IN =          27.8854

          OUT:                                     OUT:
          ----                                     ----
             STORAGE     =    40567824.0000               STORAGE     =          10.6263
       CONSTANT HEAD     =           0.0000         CONSTANT HEAD     =           0.0000
     HEAD DEP BOUNDS     =     4831009.5000       HEAD DEP BOUNDS     =           0.2876
      STREAM LEAKAGE     =   172614320.0000        STREAM LEAKAGE     =          10.7339
        UZF RECHARGE     =           0.0000          UZF RECHARGE     =           0.0000
               GW ET     =           0.0000                 GW ET     =           0.0000
     SURFACE LEAKAGE     =           0.0000       SURFACE LEAKAGE     =           0.0000
           AG WELLS      =    92590400.0000             AG WELLS      =           6.2375

               TOTAL OUT =   310603552.0000                 TOTAL OUT =          27.8853

                IN - OUT =       -3200.0000                  IN - OUT =       1.0490E-04

     PERCENT DISCREPANCY =          -0.00         PERCENT DISCREPANCY =           0.00






         TIME SUMMARY AT END OF TIME STEP   10 IN STRESS PERIOD    8
                    SECONDS     MINUTES      HOURS       DAYS        YEARS
                    -----------------------------------------------------------
   TIME STEP LENGTH  87667.      1461.1      24.352      1.0147     2.77799E-03
 STRESS PERIOD TIME 8.76667E+05  14611.      243.52      10.147     2.77799E-02
         TOTAL TIME 1.67431E+07 2.79052E+05  4650.9      193.79     0.53056    
1
 
 SOLVING FOR HEAD 
                                                   Max.-Head-Change                         Max.-Flux-Residual
  Residual-Control   Outer-Iter.   Inner-Iter.     Column Row Layer    Maximum-Head-Change  Column Row Layer    Maximum-Flux-Residual          L2-NORM 
          0                 1           2             5    8     1       0.6774847296E-01       5    8    1         0.3719921182E+01      0.8242949254E+01
          0                 2           2             5    6     1      -0.9544717076E-01       5    8    1        -0.5264806936E+01      0.1268591521E+02
          0                 3           2             4    7     1      -0.5760573288E+00       4    7    1        -0.3091918746E+02      0.7571111330E+02
          0                 4           2             4    7     1       0.3923101536E-01       4    7    1         0.2164564004E+01      0.5300974880E+01
          0                 5           2             4    7     1      -0.1561417925E-02       4    7    1        -0.8855372984E-01      0.2169002192E+00
          0                 6           1             4    7     1       0.1926723945E-04       4    7    1         0.1123098098E-02      0.2751412138E-02

    ------------------------------------------------
       NWT REQUIRED            6 OUTER ITERATIONS 
       AND A TOTAL OF         11 INNER ITERATIONS.
    ------------------------------------------------

 NO OUTPUT CONTROL FOR STRESS PERIOD    8   TIME STEP   11
 
 SOLVING FOR HEAD 
                                                   Max.-Head-Change                         Max.-Flux-Residual
  Residual-Control   Outer-Iter.   Inner-Iter.     Column Row Layer    Maximum-Head-Change  Column Row Layer    Maximum-Flux-Residual          L2-NORM 
          0                 1           2             5    8     1       0.8371399914E-01       5    8    1         0.4598746093E+01      0.1013187891E+02
          0                 2           2             5    8     1      -0.9878687987E-02       5    8    1        -0.5554428838E+00      0.1212515290E+01
          0                 3           2             4    7     1      -0.6367833260E-01       4    7    1        -0.3418228965E+01      0.8383123640E+01
          0                 4           2             4    7     1       0.6512973650E-01       4    7    1         0.3593459724E+01      0.8800200887E+01
          0                 5           2             4    7     1      -0.9546399427E-03       4    7    1        -0.5414405156E-01      0.1341609291E+00
          0                 6           2             4    7     1      -0.2080540064E-03       5    6    1        -0.1179910200E-01      0.2961462564E-01
          0                 7           2             4    7     1      -0.1024944178E-01       4    7    1        -0.5812473090E+00      0.1423759123E+01
          0                 8           2             4    7     1      -0.1580899762E-02       4    7    1        -0.8965155820E-01      0.2195926681E+00
          0                 9           2             4    7     1      -0.1718985308E-02       4    7    1        -0.9748186398E-01      0.2387793667E+00
          0                10           2             4    7     1      -0.1736855510E-02       4    7    1        -0.9849429012E-01      0.2412592830E+00
          0                11           1             4    7     1       0.2151655444E-04       5    8    1         0.1255364530E-02      0.3075482003E-02

    ------------------------------------------------
       NWT REQUIRED           11 OUTER ITERATIONS 
       AND A TOTAL OF         21 INNER ITERATIONS.
    ------------------------------------------------

 NO OUTPUT CONTROL FOR STRESS PERIOD    8   TIME STEP   12
 
 SOLVING FOR HEAD 
                                                   Max.-Head-Change                         Max.-Flux-Residual
  Residual-Control   Outer-Iter.   Inner-Iter.     Column Row Layer    Maximum-Head-Change  Column Row Layer    Maximum-Flux-Residual          L2-NORM 
          0                 1           2             5    8     1       0.7978972527E-01       5    8    1         0.4379277507E+01      0.9747441146E+01
          0                 2           2             5    8     1      -0.9667239959E-01       5    8    1        -0.5333768956E+01      0.1281973654E+02
          0                 3           2             4    7     1      -0.5706154212E+00       4    7    1        -0.3062684579E+02      0.7499115334E+02
          0                 4           2             4    7     1       0.3886042250E-01       4    7    1         0.2144099258E+01      0.5250569924E+01
          0                 5           2             4    7     1      -0.1546668030E-02       4    7    1        -0.8771650993E-01      0.2148379362E+00
          0                 6           1             4    7     1       0.1908523169E-04       4    7    1         0.1112480033E-02      0.2725255405E-02

    ------------------------------------------------
       NWT REQUIRED            6 OUTER ITERATIONS 
       AND A TOTAL OF         11 INNER ITERATIONS.
    ------------------------------------------------

 NO OUTPUT CONTROL FOR STRESS PERIOD    8   TIME STEP   13
 
 SOLVING FOR HEAD 
                                                   Max.-Head-Change                         Max.-Flux-Residual
  Residual-Control   Outer-Iter.   Inner-Iter.     Column Row Layer    Maximum-Head-Change  Column Row Layer    Maximum-Flux-Residual          L2-NORM 
          0                 1           2             5    8     1       0.9499575517E-01       5    8    1         0.5215887096E+01      0.1155532560E+02
          0                 2           2             5    8     1      -0.1088324959E-01       5    8    1        -0.6120437309E+00      0.1343634050E+01
          0                 3           2             4    7     1      -0.6411982071E-01       4    7    1        -0.3441934856E+01      0.8438045565E+01
          0                 4           2             4    7     1       0.6537713910E-01       4    7    1         0.3607075810E+01      0.8833318676E+01
          0                 5           2             4    7     1      -0.1549075799E-01       4    7    1        -0.8784967601E+00      0.2151933031E+01
          0                 6           1             5    9     1      -0.6010440040E-05       5    9    1        -0.3690322701E-03      0.9957710473E-03

    ------------------------------------------------
       NWT REQUIRED            6 OUTER ITERATIONS 
       AND A TOTAL OF         11 INNER ITERATIONS.
    ------------------------------------------------

 NO OUTPUT CONTROL FOR STRESS PERIOD    8   TIME STEP   14
 
 SOLVING FOR HEAD 
                                                   Max.-Head-Change                         Max.-Flux-Residual
  Residual-Control   Outer-Iter.   Inner-Iter.     Column Row Layer    Maximum-Head-Change  Column Row Layer    Maximum-Flux-Residual          L2-NORM 
          0                 1           2             5    8     1       0.9049121805E-01       5    8    1         0.4964149792E+01      0.1111067502E+02
          0                 2           2             5    8     1      -0.9724070487E-01       5    8    1        -0.5366213576E+01      0.1287256708E+02
          0                 3           2             4    7     1      -0.5503006261E+00       4    7    1        -0.2953622354E+02      0.7231661182E+02
          0                 4           2             4    7     1       0.3747705976E-01       4    7    1         0.2067755791E+01      0.5063328409E+01
          0                 5           2             4    7     1      -0.1491609073E-02       4    7    1        -0.8459324202E-01      0.2071766759E+00
          0                 6           1             4    7     1       0.1840582809E-04       4    7    1         0.1072868829E-02      0.2628074026E-02

    ------------------------------------------------
       NWT REQUIRED            6 OUTER ITERATIONS 
       AND A TOTAL OF         11 INNER ITERATIONS.
    ------------------------------------------------

 OUTPUT CONTROL FOR STRESS PERIOD    8   TIME STEP   15
    PRINT BUDGET
    SAVE BUDGET
 UBDSV1 SAVING "         STORAGE" ON UNIT 102 AT TIME STEP 15, STRESS PERIOD 8
 UBDSV2 SAVING "   CONSTANT HEAD" ON UNIT 102 AT TIME STEP 15, STRESS PERIOD 8
 UBDSV1 SAVING "FLOW RIGHT FACE " ON UNIT 102 AT TIME STEP 15, STRESS PERIOD 8
 UBDSV1 SAVING "FLOW FRONT FACE " ON UNIT 102 AT TIME STEP 15, STRESS PERIOD 8

  HEAD DEP BOUNDS   PERIOD    8   STEP    15
 BOUNDARY      1   LAYER   1   ROW    13   COL     1   RATE   -0.287395    
 BOUNDARY      2   LAYER   1   ROW    14   COL     9   RATE    0.287959    



 STREAM LISTING     PERIOD      8   STEP       15

 LAYER ROW COL. STREAM  RCH.  FLOW INTO     FLOW TO   FLOW OUT OF   OVRLND.     DIRECT     STREAM       STREAM     STREAM     STREAM   STREAMBED  STREAMBED
                SEG.NO.  NO.  STRM. RCH.    AQUIFER    STRM. RCH.    RUNOFF     PRECIP       ET          HEAD       DEPTH      WIDTH   CONDCTNC.   GRADIENT

   1    1    1     1     1    2.8125E+01  2.5915E-01   2.7866E+01  0.000E+00  0.000E+00  0.000E+00  1.09427E+03  1.223E+00  1.364E+01  6.137E-02  1.408E+00
   1    2    2     1     2    2.7866E+01  4.0087E-01   2.7465E+01  0.000E+00  0.000E+00  0.000E+00  1.08928E+03  1.218E+00  1.358E+01  9.503E-02  1.406E+00
   1    3    3     1     3    2.7465E+01  3.4142E-01   2.7123E+01  0.000E+00  0.000E+00  0.000E+00  1.08363E+03  1.213E+00  1.351E+01  8.103E-02  1.404E+00
   1    3    4     1     4    2.7123E+01  3.1403E-01   2.6809E+01  0.000E+00  0.000E+00  0.000E+00  1.07862E+03  1.209E+00  1.344E+01  7.461E-02  1.403E+00
   1    4    5     2     1    2.4809E+01  3.2739E-01   2.4482E+01  0.000E+00  0.000E+00  0.000E+00  1.07313E+03  1.197E+00  1.200E+01  7.800E-02  1.399E+00
   1    5    6     2     2    2.4482E+01  2.5133E-01   2.4231E+01  0.000E+00  0.000E+00  0.000E+00  1.06770E+03  1.189E+00  1.200E+01  6.000E-02  1.396E+00
   1    6    6     2     3    2.4231E+01  2.5089E-01   2.3980E+01  0.000E+00  0.000E+00  0.000E+00  1.06297E+03  1.181E+00  1.200E+01  6.000E-02  1.394E+00
   1    7    6     2     4    2.3980E+01  2.5044E-01   2.3729E+01  0.000E+00  0.000E+00  0.000E+00  1.05825E+03  1.174E+00  1.200E+01  6.000E-02  1.391E+00
   1    8    6     2     5    2.3729E+01  2.5000E-01   2.3479E+01  0.000E+00  0.000E+00  0.000E+00  1.05353E+03  1.167E+00  1.200E+01  6.000E-02  1.389E+00
   1    3    5     3     1    2.0000E+00  2.8252E-01   1.7175E+00  0.000E+00  0.000E+00  0.000E+00  1.07555E+03  1.909E+00  9.636E+00  7.227E-02  1.955E+00
   1    3    6     3     2    1.7175E+00  2.4905E-01   1.4684E+00  0.000E+00  0.000E+00  0.000E+00  1.07264E+03  1.727E+00  8.909E+00  6.682E-02  1.864E+00
   1    3    7     3     3    1.4684E+00  1.9718E-01   1.2712E+00  0.000E+00  0.000E+00  0.000E+00  1.06987E+03  1.555E+00  8.218E+00  5.547E-02  1.777E+00
   1    4    8     3     4    1.2712E+00  2.2567E-01   1.0456E+00  0.000E+00  0.000E+00  0.000E+00  1.06682E+03  1.364E+00  7.455E+00  6.709E-02  1.682E+00
   1    5    8     3     5    1.0456E+00  1.5790E-01   8.8768E-01  0.000E+00  0.000E+00  0.000E+00  1.06362E+03  1.164E+00  6.655E+00  4.991E-02  1.582E+00
   1    6    8     3     6    8.8768E-01  5.5980E-02   8.3170E-01  0.000E+00  0.000E+00  0.000E+00  1.06158E+03  1.036E+00  6.145E+00  1.844E-02  1.518E+00
   1    5   10     4     1    1.0000E+01  9.0919E-02   9.9091E+00  0.000E+00  0.000E+00  0.000E+00  1.07836E+03  6.368E-01  1.000E+01  2.500E-02  1.212E+00
   1    5    9     4     2    9.9091E+00  1.8158E-01   9.7275E+00  0.000E+00  0.000E+00  0.000E+00  1.07154E+03  6.315E-01  1.000E+01  5.000E-02  1.211E+00
   1    6    8     4     3    9.7275E+00  1.2689E-01   9.6006E+00  0.000E+00  0.000E+00  0.000E+00  1.06381E+03  6.256E-01  1.000E+01  3.500E-02  1.209E+00
   1    6    8     5     1    1.0432E+01  2.2686E-01   1.0205E+01  0.000E+00  0.000E+00  0.000E+00  1.05868E+03  6.790E-01  1.542E+01  6.166E-02  1.226E+00
   1    7    7     5     2    1.0205E+01  2.7894E-01   9.9265E+00  0.000E+00  0.000E+00  0.000E+00  1.05417E+03  6.732E-01  1.519E+01  7.594E-02  1.224E+00
   1    8    7     5     3    9.9265E+00  1.9221E-01   9.7343E+00  0.000E+00  0.000E+00  0.000E+00  1.04992E+03  6.676E-01  1.497E+01  5.241E-02  1.223E+00
   1    8    6     5     4    9.7343E+00  1.3577E-01   9.5985E+00  0.000E+00  0.000E+00  0.000E+00  1.04691E+03  6.637E-01  1.482E+01  3.706E-02  1.221E+00
   1    9    6     6     1    9.5985E+00  2.2097E-01   9.3776E+00  0.000E+00  0.000E+00  0.000E+00  1.04341E+03  6.828E-01  1.200E+01  6.000E-02  1.228E+00
   1   10    7     6     2    9.3776E+00  2.2039E-01   9.1572E+00  0.000E+00  0.000E+00  0.000E+00  1.03885E+03  6.732E-01  1.200E+01  6.000E-02  1.224E+00
   1   11    7     6     3    9.1572E+00  2.1981E-01   8.9374E+00  0.000E+00  0.000E+00  0.000E+00  1.03430E+03  6.636E-01  1.200E+01  6.000E-02  1.221E+00
   1   12    7     6     4    8.9374E+00  2.1923E-01   8.7181E+00  0.000E+00  0.000E+00  0.000E+00  1.02974E+03  6.539E-01  1.200E+01  6.000E-02  1.218E+00
   1   13    7     6     5    8.7181E+00 -6.8489E-02   8.7866E+00  0.000E+00  0.000E+00  0.000E+00  1.02656E+03  6.505E-01  1.200E+01  2.400E-01 -9.512E-02
   1   14    9     7     1    1.5000E+02  1.3681E+00   1.4863E+02  0.000E+00  0.000E+00  0.000E+00  1.03987E+03  2.288E+00  5.529E+01  5.593E-01  8.154E-01
   1   13    8     7     2    1.4863E+02  1.9155E+00   1.4672E+02  0.000E+00  0.000E+00  0.000E+00  1.03478E+03  2.279E+00  5.526E+01  6.148E-01  1.039E+00
   1   13    7     7     3    1.4672E+02  1.5881E+00   1.4513E+02  0.000E+00  0.000E+00  0.000E+00  1.02969E+03  2.270E+00  5.521E+01  5.584E-01  9.480E-01
   1   13    6     8     1    1.5391E+02  9.3711E-01   1.5298E+02  0.000E+00  0.000E+00  0.000E+00  1.02472E+03  2.841E+00  4.119E+01  4.198E-01  7.441E-01
   1   13    5     8     2    1.5298E+02  1.9877E-01   1.5278E+02  0.000E+00  0.000E+00  0.000E+00  1.01846E+03  2.837E+00  4.114E+01  4.192E-01  1.581E-01
   1   13    4     8     3    1.5278E+02 -2.3565E+00   1.5514E+02  0.000E+00  0.000E+00  0.000E+00  1.01222E+03  2.844E+00  4.124E+01  4.203E+00 -1.869E-01
   1   13    3     8     4    1.5514E+02 -3.6156E+00   1.5875E+02  0.000E+00  0.000E+00  0.000E+00  1.00599E+03  2.865E+00  4.154E+01  4.233E+00 -2.847E-01
   1   13    2     8     5    1.5875E+02 -2.6058E+00   1.6136E+02  0.000E+00  0.000E+00  0.000E+00  9.99761E+02  2.886E+00  4.185E+01  4.265E+00 -2.037E-01
   1   13    1     8     6    1.6136E+02 -2.0227E+00   1.6338E+02  0.000E+00  0.000E+00  0.000E+00  9.94777E+02  2.902E+00  4.208E+01  2.573E+00 -2.621E-01
   1    8    6     9     1    2.3479E+01  0.0000E+00   2.3479E+01  0.000E+00  0.000E+00  0.000E+00  1.08253E+03  3.782E+00  4.000E+00  0.000E+00  2.261E+00
   1    8    5     9     2    2.3479E+01  0.0000E+00   2.3479E+01  0.000E+00  0.000E+00  0.000E+00  1.08203E+03  3.782E+00  4.000E+00  0.000E+00  2.261E+00



 UBDSV3 SAVING "           GW ET" ON UNIT  61 AT TIME STEP 15, STRESS PERIOD 8
 UBDSV3 SAVING "    UZF RECHARGE" ON UNIT  61 AT TIME STEP 15, STRESS PERIOD 8
 UBDSV3 SAVING " SURFACE LEAKAGE" ON UNIT  61 AT TIME STEP 15, STRESS PERIOD 8
 UBDSV3 SAVING "       HORT+DUNN" ON UNIT  61 AT TIME STEP 15, STRESS PERIOD 8
 UBDSV3 SAVING "  STORAGE CHANGE" ON UNIT  61 AT TIME STEP 15, STRESS PERIOD 8


UNSATURATED ZONE PACKAGE VOLUMETRIC BUDGET FOR  TIME STEP    15 STRESS PERIOD    8
  ------------------------------------------------------------------------------



     CUMULATIVE VOLUMES      L**3       RATES FOR THIS TIME STEP      L**3/T
     ------------------                 ------------------------

           IN:                                      IN:
           ---                                      ---
        INFILTRATION =   278316510.1054          INFILTRATION =         232.8823

          OUT:                                     OUT:
          ----                                     ----
              UZF ET =   183965856.3213                UZF ET =          60.8175
        UZF RECHARGE =       73224.0000          UZF RECHARGE =       0.0000E+00

            IN - OUT =    94277429.7841              IN - OUT =         172.0648

          STORAGE:                                 STORAGE:
          --------                                 --------
      STORAGE CHANGE =    94277734.0108        STORAGE CHANGE =         172.0648

 PERCENT DISCREPANCY IS DIFFERENCE BETWEEN IN-OUT MINUS CHANGE IN STORAGE
 DIVIDED BY THE AVERAGE OF IN AND OUT TIMES 100

 PERCENT DISCREPANCY =          -0.00     PERCENT DISCREPANCY =           0.00






 

            AG WELLS      PERIOD    8   STEP  15
 AG WELL      1   LAYER   1   ROW     6   COL     4   RATE    -34.7592    
 AG WELL      2   LAYER   1   ROW     6   COL     5   RATE    -34.7592    
 AG WELL      3   LAYER   1   ROW     7   COL     4   RATE    -34.7592    
 AG WELL      4   LAYER   1   ROW     7   COL     5   RATE    -34.7592    
 AG WELL      5   LAYER   1   ROW     8   COL     4   RATE    -34.7592    
 AG WELL      6   LAYER   1   ROW     8   COL     5   RATE    -34.7592    
 
 

   DIVERSION SEGMENTS     PERIOD    8   STEP  15
 SEGMENT      9   RATE     23.4793    
 
 

        SW IRRIGATION     PERIOD    8   STEP  15
 SEGMENT      9   ROW     6   COL     4   RATE     3.91329    
 SEGMENT      9   ROW     6   COL     5   RATE     3.91329    
 SEGMENT      9   ROW     7   COL     4   RATE     3.91329    
 SEGMENT      9   ROW     7   COL     5   RATE     3.91329    
 SEGMENT      9   ROW     8   COL     4   RATE     3.91329    
 SEGMENT      9   ROW     8   COL     5   RATE     3.91329    
 
 

        GW IRRIGATION     PERIOD    8   STEP  15
 AG WELL      1   ROW     6   COL     4   RATE     34.7592    
 AG WELL      2   ROW     6   COL     5   RATE     34.7592    
 AG WELL      3   ROW     7   COL     4   RATE     34.7592    
 AG WELL      4   ROW     7   COL     5   RATE     34.7592    
 AG WELL      5   ROW     8   COL     4   RATE     34.7592    
 AG WELL      6   ROW     8   COL     5   RATE     34.7592    
 
1
  VOLUMETRIC BUDGET FOR AGRICULTURAL FIELDS AT  END OF TIME STEP   15, STRESS PERIOD   8
  ------------------------------------------------------------------------------

     CUMULATIVE VOLUMES      L**3       RATES FOR THIS TIME STEP      L**3/T
     ------------------                 ------------------------

           IN:                                      IN:
           ---                                      ---
               AG WELLS  =   149764800.0000                 AG WELLS  =         208.5550
      DIVERSION SEGMENTS =   114018568.0000        DIVERSION SEGMENTS =          23.4793
       IRRIGATION PONDS  =           0.0000         IRRIGATION PONDS  =           0.0000
           GW IRRIGATION =           0.0000             GW IRRIGATION =           0.0000
           SW IRRIGATION =           0.0000             SW IRRIGATION =           0.0000
        SYSTEM LOSSES GW =           0.0000          SYSTEM LOSSES GW =           0.0000
        SYSTEM LOSSES SW =           0.0000          SYSTEM LOSSES SW =           0.0000

                TOTAL IN =   263783360.0000                  TOTAL IN =         232.0343

          OUT:                                     OUT:
          ----                                     ----
               AG WELLS  =           0.0000                 AG WELLS  =           0.0000
      DIVERSION SEGMENTS =           0.0000        DIVERSION SEGMENTS =           0.0000
       IRRIGATION PONDS  =           0.0000         IRRIGATION PONDS  =           0.0000
           GW IRRIGATION =   149764800.0000             GW IRRIGATION =         208.5550
           SW IRRIGATION =   114020824.0000             SW IRRIGATION =          23.4797
        SYSTEM LOSSES GW =           0.0000          SYSTEM LOSSES GW =           0.0000
        SYSTEM LOSSES SW =           0.0000          SYSTEM LOSSES SW =           0.0000

               TOTAL OUT =   263785632.0000                 TOTAL OUT =         232.0347

                IN - OUT =       -2272.0000                  IN - OUT =      -4.7302E-04

     PERCENT DISCREPANCY =          -0.00         PERCENT DISCREPANCY =          -0.00



1
  VOLUMETRIC BUDGET FOR ENTIRE MODEL AT END OF TIME STEP   15, STRESS PERIOD   8
  ------------------------------------------------------------------------------

     CUMULATIVE VOLUMES      L**3       RATES FOR THIS TIME STEP      L**3/T
     ------------------                 ------------------------

           IN:                                      IN:
           ---                                      ---
             STORAGE     =   166774672.0000               STORAGE     =         208.1330
       CONSTANT HEAD     =           0.0000         CONSTANT HEAD     =           0.0000
     HEAD DEP BOUNDS     =     4946130.0000       HEAD DEP BOUNDS     =           0.2880
      STREAM LEAKAGE     =   203746336.0000        STREAM LEAKAGE     =          11.9350
        UZF RECHARGE     =       73223.9531          UZF RECHARGE     =           0.0000
               GW ET     =           0.0000                 GW ET     =           0.0000
     SURFACE LEAKAGE     =           0.0000       SURFACE LEAKAGE     =           0.0000
           AG WELLS      =           0.0000             AG WELLS      =           0.0000

                TOTAL IN =   375540352.0000                  TOTAL IN =         220.3560

          OUT:                                     OUT:
          ----                                     ----
             STORAGE     =    43520136.0000               STORAGE     =           0.8444
       CONSTANT HEAD     =           0.0000         CONSTANT HEAD     =           0.0000
     HEAD DEP BOUNDS     =     4957020.0000       HEAD DEP BOUNDS     =           0.2874
      STREAM LEAKAGE     =   177301552.0000        STREAM LEAKAGE     =          10.6691
        UZF RECHARGE     =           0.0000          UZF RECHARGE     =           0.0000
               GW ET     =           0.0000                 GW ET     =           0.0000
     SURFACE LEAKAGE     =           0.0000       SURFACE LEAKAGE     =           0.0000
           AG WELLS      =   149764800.0000             AG WELLS      =         208.5550

               TOTAL OUT =   375543488.0000                 TOTAL OUT =         220.3559

                IN - OUT =       -3136.0000                  IN - OUT =       1.0681E-04

     PERCENT DISCREPANCY =          -0.00         PERCENT DISCREPANCY =           0.00






         TIME SUMMARY AT END OF TIME STEP   15 IN STRESS PERIOD    8
                    SECONDS     MINUTES      HOURS       DAYS        YEARS
                    -----------------------------------------------------------
   TIME STEP LENGTH  87667.      1461.1      24.352      1.0147     2.77799E-03
 STRESS PERIOD TIME 1.31500E+06  21917.      365.28      15.220     4.16698E-02
         TOTAL TIME 1.71814E+07 2.86357E+05  4772.6      198.86     0.54445    
1
 
 SOLVING FOR HEAD 
                                                   Max.-Head-Change                         Max.-Flux-Residual
  Residual-Control   Outer-Iter.   Inner-Iter.     Column Row Layer    Maximum-Head-Change  Column Row Layer    Maximum-Flux-Residual          L2-NORM 
          0                 1           2             5    8     1       0.1045761728E+00       5    8    1         0.5738676361E+01      0.1279365886E+02
          0                 2           2             5    8     1      -0.1176813883E-01       5    8    1        -0.6617325816E+00      0.1462127226E+01
          0                 3           2             4    7     1      -0.6529434472E-01       4    7    1        -0.3504969026E+01      0.8590722768E+01
          0                 4           2             4    7     1       0.6679585189E-01       4    7    1         0.3685313138E+01      0.9024806709E+01
          0                 5           2             4    7     1      -0.1071800480E-02       4    7    1        -0.6078745793E-01      0.1492509566E+00
          0                 6           2             4    7     1      -0.5670014047E-02       5    6    1        -0.3215440511E+00      0.7876184905E+00
          0                 7           2             4    7     1      -0.1616569310E-01       4    7    1        -0.9167390824E+00      0.2245538115E+01
          0                 8           2             4    7     1       0.1997909790E-03       5    8    1         0.1165667390E-01      0.2855715755E-01
          0                 9           1             4    7     1       0.2932673040E-05       5    8    1         0.1711031427E-03      0.4191820683E-03

    ------------------------------------------------
       NWT REQUIRED            9 OUTER ITERATIONS 
       AND A TOTAL OF         17 INNER ITERATIONS.
    ------------------------------------------------

 NO OUTPUT CONTROL FOR STRESS PERIOD    8   TIME STEP   16
 
 SOLVING FOR HEAD 
                                                   Max.-Head-Change                         Max.-Flux-Residual
  Residual-Control   Outer-Iter.   Inner-Iter.     Column Row Layer    Maximum-Head-Change  Column Row Layer    Maximum-Flux-Residual          L2-NORM 
          0                 1           2             5    8     1       0.9983826988E-01       5    8    1         0.5473912258E+01      0.1232856568E+02
          0                 2           2             5    8     1      -0.9884527384E-01       5    8    1        -0.5455462585E+01      0.1307390658E+02
          0                 3           2             4    7     1      -0.5296762445E+00       4    7    1        -0.2842898741E+02      0.6960214133E+02
          0                 4           2             4    7     1       0.3607254072E-01       4    7    1         0.1990245176E+01      0.4873280951E+01
          0                 5           2             4    7     1      -0.1435708098E-02       4    7    1        -0.8142222550E-01      0.1994005580E+00
          0                 6           1             4    7     1       0.1771603389E-04       4    7    1         0.1032652003E-02      0.2529432268E-02

    ------------------------------------------------
       NWT REQUIRED            6 OUTER ITERATIONS 
       AND A TOTAL OF         11 INNER ITERATIONS.
    ------------------------------------------------

 NO OUTPUT CONTROL FOR STRESS PERIOD    8   TIME STEP   17
 
 SOLVING FOR HEAD 
                                                   Max.-Head-Change                         Max.-Flux-Residual
  Residual-Control   Outer-Iter.   Inner-Iter.     Column Row Layer    Maximum-Head-Change  Column Row Layer    Maximum-Flux-Residual          L2-NORM 
          0                 1           2             5    8     1       0.1129145600E+00       5    8    1         0.6192636240E+01      0.1389574619E+02
          0                 2           2             5    8     1      -0.1256920820E-01       5    8    1        -0.7065754510E+00      0.1571437121E+01
          0                 3           2             4    7     1      -0.6636707809E-01       4    7    1        -0.3562527563E+01      0.8730658997E+01
          0                 4           2             4    7     1       0.6812828758E-01       4    7    1         0.3758786950E+01      0.9204677681E+01
          0                 5           2             4    7     1      -0.1621255180E-01       4    7    1        -0.9194105940E+00      0.2252042839E+01
          0                 6           2             4    7     1      -0.1545966044E-02       4    7    1        -0.8766908508E-01      0.2147349316E+00
          0                 7           2             4    7     1      -0.2706191356E-02       4    7    1        -0.1534634484E+00      0.3759056238E+00
          0                 8           1             4    7     1       0.3344590042E-04       5    8    1         0.1951363712E-02      0.4780575836E-02

    ------------------------------------------------
       NWT REQUIRED            8 OUTER ITERATIONS 
       AND A TOTAL OF         15 INNER ITERATIONS.
    ------------------------------------------------

 NO OUTPUT CONTROL FOR STRESS PERIOD    8   TIME STEP   18
 
 SOLVING FOR HEAD 
                                                   Max.-Head-Change                         Max.-Flux-Residual
  Residual-Control   Outer-Iter.   Inner-Iter.     Column Row Layer    Maximum-Head-Change  Column Row Layer    Maximum-Flux-Residual          L2-NORM 
          0                 1           2             5    8     1       0.1077258876E+00       5    8    1         0.5902915586E+01      0.1338346059E+02
          0                 2           2             5    8     1      -0.9949107496E-01       5    8    1        -0.5491658653E+01      0.1315276952E+02
          0                 3           2             4    7     1      -0.5568052788E+00       4    7    1        -0.2988473001E+02      0.7316642942E+02
          0                 4           2             4    7     1       0.3791995387E-01       4    7    1         0.2092149018E+01      0.5122818702E+01
          0                 5           2             4    7     1      -0.1509236625E-02       4    7    1        -0.8559120809E-01      0.2096110053E+00
          0                 6           1             4    7     1       0.1862334455E-04       4    7    1         0.1085525910E-02      0.2658953939E-02

    ------------------------------------------------
       NWT REQUIRED            6 OUTER ITERATIONS 
       AND A TOTAL OF         11 INNER ITERATIONS.
    ------------------------------------------------

 NO OUTPUT CONTROL FOR STRESS PERIOD    8   TIME STEP   19
 
 SOLVING FOR HEAD 
                                                   Max.-Head-Change                         Max.-Flux-Residual
  Residual-Control   Outer-Iter.   Inner-Iter.     Column Row Layer    Maximum-Head-Change  Column Row Layer    Maximum-Flux-Residual          L2-NORM 
          0                 1           2             5    8     1       0.1212393215E+00       5    8    1         0.6645699753E+01      0.1499944014E+02
          0                 2           2             5    8     1      -0.1350931716E-01       5    8    1        -0.7590580917E+00      0.1697284422E+01
          0                 3           2             4    7     1      -0.6457522940E-01       4    7    1        -0.3466337307E+01      0.8492574831E+01
          0                 4           2             4    7     1       0.6644532524E-01       4    7    1         0.3665894873E+01      0.8976991079E+01
          0                 5           2             4    7     1      -0.1549694339E-01       4    7    1        -0.8788187463E+00      0.2152673499E+01
          0                 6           2             4    7     1      -0.2771227934E-03       4    7    1        -0.1571426942E-01      0.3849155448E-01
          0                 7           2             4    7     1      -0.1754402144E-02       4    7    1        -0.9948802397E-01      0.2436944573E+00
          0                 8           1             4    7     1       0.2168271908E-04       5    8    1         0.1265032662E-02      0.3099144762E-02

    ------------------------------------------------
       NWT REQUIRED            8 OUTER ITERATIONS 
       AND A TOTAL OF         15 INNER ITERATIONS.
    ------------------------------------------------

 NO OUTPUT CONTROL FOR STRESS PERIOD    8   TIME STEP   20
 
 SOLVING FOR HEAD 
                                                   Max.-Head-Change                         Max.-Flux-Residual
  Residual-Control   Outer-Iter.   Inner-Iter.     Column Row Layer    Maximum-Head-Change  Column Row Layer    Maximum-Flux-Residual          L2-NORM 
          0                 1           2             5    8     1       0.1155923076E+00       5    8    1         0.6330605963E+01      0.1443925630E+02
          0                 2           2             5    8     1      -0.1001645887E+00       5    8    1        -0.5529361704E+01      0.1323619374E+02
          0                 3           2             4    7     1      -0.5708895286E+00       4    7    1        -0.3064030679E+02      0.7501578542E+02
          0                 4           2             4    7     1       0.3887908503E-01       4    7    1         0.2145042203E+01      0.5252297830E+01
          0                 5           2             4    7     1      -0.1547410832E-02       4    7    1        -0.8775512338E-01      0.2149089987E+00
          0                 6           1             4    7     1       0.1909439773E-04       4    7    1         0.1112970201E-02      0.2726160829E-02

    ------------------------------------------------
       NWT REQUIRED            6 OUTER ITERATIONS 
       AND A TOTAL OF         11 INNER ITERATIONS.
    ------------------------------------------------

 NO OUTPUT CONTROL FOR STRESS PERIOD    8   TIME STEP   21
 
 SOLVING FOR HEAD 
                                                   Max.-Head-Change                         Max.-Flux-Residual
  Residual-Control   Outer-Iter.   Inner-Iter.     Column Row Layer    Maximum-Head-Change  Column Row Layer    Maximum-Flux-Residual          L2-NORM 
          0                 1           2             5    8     1       0.1291694185E+00       5    8    1         0.7076840756E+01      0.1606067978E+02
          0                 2           2             5    8     1      -0.1421427969E-01       5    8    1        -0.7985140784E+00      0.1796175322E+01
          0                 3           2             4    7     1      -0.6393212001E-01       4    7    1        -0.3431796641E+01      0.8406209616E+01
          0                 4           2             4    7     1       0.6535078580E-01       4    7    1         0.3605466918E+01      0.8828860198E+01
          0                 5           2             4    7     1      -0.1538442341E-01       4    7    1        -0.8724275874E+00      0.2137051477E+01
          0                 6           1             4    7     1       0.1617416676E-04       5    8    1         0.9522370733E-03      0.2496582564E-02

    ------------------------------------------------
       NWT REQUIRED            6 OUTER ITERATIONS 
       AND A TOTAL OF         11 INNER ITERATIONS.
    ------------------------------------------------

 NO OUTPUT CONTROL FOR STRESS PERIOD    8   TIME STEP   22
 
 SOLVING FOR HEAD 
                                                   Max.-Head-Change                         Max.-Flux-Residual
  Residual-Control   Outer-Iter.   Inner-Iter.     Column Row Layer    Maximum-Head-Change  Column Row Layer    Maximum-Flux-Residual          L2-NORM 
          0                 1           2             5    8     1       0.1231248226E+00       5    8    1         0.6739747158E+01      0.1545840813E+02
          0                 2           2             5    8     1      -0.1003263636E+00       5    8    1        -0.5538819238E+01      0.1325180382E+02
          0                 3           2             4    7     1      -0.5434042647E+00       4    7    1        -0.2916483125E+02      0.7140044648E+02
          0                 4           2             4    7     1       0.3700741564E-01       4    7    1         0.2041757569E+01      0.4999187830E+01
          0                 5           2             4    7     1      -0.1472916873E-02       4    7    1        -0.8352966656E-01      0.2045525380E+00
          0                 6           1             4    7     1       0.1817517441E-04       4    7    1         0.1059380266E-02      0.2594789863E-02

    ------------------------------------------------
       NWT REQUIRED            6 OUTER ITERATIONS 
       AND A TOTAL OF         11 INNER ITERATIONS.
    ------------------------------------------------

 NO OUTPUT CONTROL FOR STRESS PERIOD    8   TIME STEP   23
 
 SOLVING FOR HEAD 
                                                   Max.-Head-Change                         Max.-Flux-Residual
  Residual-Control   Outer-Iter.   Inner-Iter.     Column Row Layer    Maximum-Head-Change  Column Row Layer    Maximum-Flux-Residual          L2-NORM 
          0                 1           2             5    8     1       0.1355665631E+00       5    8    1         0.7423277521E+01      0.1694881927E+02
          0                 2           2             5    8     1      -0.1498939642E-01       5    8    1        -0.8415734093E+00      0.1903361359E+01
          0                 3           2             4    7     1      -0.6507686506E-01       4    7    1        -0.3493199062E+01      0.8556945149E+01
          0                 4           2             4    7     1       0.6674983044E-01       4    7    1         0.3682609905E+01      0.9017804643E+01
          0                 5           2             4    7     1      -0.1596987810E-01       4    7    1        -0.9056171136E+00      0.2218244648E+01
          0                 6           2             4    7     1      -0.1395274328E-02       4    7    1        -0.7912076906E-01      0.1937963687E+00
          0                 7           1             4    7     1       0.1723067318E-04       5    8    1         0.1005444608E-02      0.2463494338E-02

    ------------------------------------------------
       NWT REQUIRED            7 OUTER ITERATIONS 
       AND A TOTAL OF         13 INNER ITERATIONS.
    ------------------------------------------------

 NO OUTPUT CONTROL FOR STRESS PERIOD    8   TIME STEP   24
 
 SOLVING FOR HEAD 
                                                   Max.-Head-Change                         Max.-Flux-Residual
  Residual-Control   Outer-Iter.   Inner-Iter.     Column Row Layer    Maximum-Head-Change  Column Row Layer    Maximum-Flux-Residual          L2-NORM 
          0                 1           2             5    8     1       0.1293271230E+00       5    8    1         0.7075442707E+01      0.1632771573E+02
          0                 2           2             5    8     1      -0.1014494192E+00       5    8    1        -0.5600988202E+01      0.1340437368E+02
          0                 3           2             4    7     1      -0.5754055459E+00       4    7    1        -0.3088196768E+02      0.7560602535E+02
          0                 4           2             4    7     1       0.3918662237E-01       4    7    1         0.2161959583E+01      0.5293623137E+01
          0                 5           2             4    7     1      -0.1559651077E-02       4    7    1        -0.8844724376E-01      0.2166000387E+00
          0                 6           1             4    7     1       0.1924543713E-04       4    7    1         0.1121748312E-02      0.2747614291E-02

    ------------------------------------------------
       NWT REQUIRED            6 OUTER ITERATIONS 
       AND A TOTAL OF         11 INNER ITERATIONS.
    ------------------------------------------------

 NO OUTPUT CONTROL FOR STRESS PERIOD    8   TIME STEP   25
 
 SOLVING FOR HEAD 
                                                   Max.-Head-Change                         Max.-Flux-Residual
  Residual-Control   Outer-Iter.   Inner-Iter.     Column Row Layer    Maximum-Head-Change  Column Row Layer    Maximum-Flux-Residual          L2-NORM 
          0                 1           2             5    8     1       0.1424696462E+00       5    8    1         0.7797655373E+01      0.1789279009E+02
          0                 2           2             5    8     1      -0.1558595379E-01       5    8    1        -0.8748847778E+00      0.1989599511E+01
          0                 3           2             4    7     1      -0.6345251672E-01       4    7    1        -0.3405987265E+01      0.8341544280E+01
          0                 4           2             4    7     1       0.6513689162E-01       4    7    1         0.3593581821E+01      0.8799640386E+01
          0                 5           2             4    7     1      -0.9544534606E-03       4    7    1        -0.5412974366E-01      0.1341228092E+00
          0                 6           2             4    7     1      -0.2160174470E-03       5    6    1        -0.1225001840E-01      0.3057931325E-01
          0                 7           2             4    7     1      -0.1118025873E-01       4    7    1        -0.6339839061E+00      0.1552936862E+01
          0                 8           2             4    7     1      -0.1602768941E-02       4    7    1        -0.9088449973E-01      0.2226120780E+00
          0                 9           2             4    7     1      -0.1738999565E-02       4    7    1        -0.9860904634E-01      0.2415403556E+00
          0                10           2             4    7     1      -0.3110494052E-03       4    7    1        -0.1763763164E-01      0.4320181651E-01
          0                11           1             4    7     1       0.3853352342E-05       5    8    1         0.2248186242E-03      0.5508065683E-03

    ------------------------------------------------
       NWT REQUIRED           11 OUTER ITERATIONS 
       AND A TOTAL OF         21 INNER ITERATIONS.
    ------------------------------------------------

 NO OUTPUT CONTROL FOR STRESS PERIOD    8   TIME STEP   26
 
 SOLVING FOR HEAD 
                                                   Max.-Head-Change                         Max.-Flux-Residual
  Residual-Control   Outer-Iter.   Inner-Iter.     Column Row Layer    Maximum-Head-Change  Column Row Layer    Maximum-Flux-Residual          L2-NORM 
          0                 1           2             5    8     1       0.1359032924E+00       5    8    1         0.7431760506E+01      0.1723777428E+02
          0                 2           2             5    8     1      -0.1020985277E+00       5    8    1        -0.5637031057E+01      0.1349172656E+02
          0                 3           2             4    7     1      -0.5744550154E+00       4    7    1        -0.3083057950E+02      0.7547950944E+02
          0                 4           2             4    7     1       0.3912189132E-01       4    7    1         0.2158362389E+01      0.5284765892E+01
          0                 5           2             4    7     1      -0.1557074730E-02       4    7    1        -0.8830008660E-01      0.2162376821E+00
          0                 6           1             4    7     1       0.1921364624E-04       4    7    1         0.1119882061E-02      0.2743020618E-02

    ------------------------------------------------
       NWT REQUIRED            6 OUTER ITERATIONS 
       AND A TOTAL OF         11 INNER ITERATIONS.
    ------------------------------------------------

 NO OUTPUT CONTROL FOR STRESS PERIOD    8   TIME STEP   27
 
 SOLVING FOR HEAD 
                                                   Max.-Head-Change                         Max.-Flux-Residual
  Residual-Control   Outer-Iter.   Inner-Iter.     Column Row Layer    Maximum-Head-Change  Column Row Layer    Maximum-Flux-Residual          L2-NORM 
          0                 1           2             5    8     1       0.1487909426E+00       5    8    1         0.8138549682E+01      0.1876624690E+02
          0                 2           2             5    8     1      -0.1618511446E-01       5    8    1        -0.9081088694E+00      0.2075702629E+01
          0                 3           2             4    7     1      -0.6349485337E-01       4    7    1        -0.3408219519E+01      0.8346619951E+01
          0                 4           2             4    7     1       0.6517741724E-01       4    7    1         0.3595773549E+01      0.8804974942E+01
          0                 5           2             4    7     1      -0.9554518246E-03       4    7    1        -0.5418571268E-01      0.1343042052E+00
          0                 6           2             4    7     1      -0.2337393055E-03       5    6    1        -0.1325480446E-01      0.3279569583E-01
          0                 7           2             4    7     1      -0.1436933604E-01       4    7    1        -0.8148125830E+00      0.1995874834E+01
          0                 8           2             4    7     1      -0.8192709328E-02       4    7    1        -0.4645617239E+00      0.1137927158E+01
          0                 9           2             4    7     1       0.1013333789E-03       5    8    1         0.5911873905E-02      0.1448342669E-01
          0                10           1             4    7     1       0.1486460003E-05       5    8    1         0.8672041895E-04      0.2124575494E-03

    ------------------------------------------------
       NWT REQUIRED           10 OUTER ITERATIONS 
       AND A TOTAL OF         19 INNER ITERATIONS.
    ------------------------------------------------

 NO OUTPUT CONTROL FOR STRESS PERIOD    8   TIME STEP   28
 
 SOLVING FOR HEAD 
                                                   Max.-Head-Change                         Max.-Flux-Residual
  Residual-Control   Outer-Iter.   Inner-Iter.     Column Row Layer    Maximum-Head-Change  Column Row Layer    Maximum-Flux-Residual          L2-NORM 
          0                 1           2             5    8     1       0.1422338888E+00       5    8    1         0.7773366744E+01      0.1811281714E+02
          0                 2           2             5    8     1      -0.1030984295E+00       5    8    1        -0.5692456903E+01      0.1362482920E+02
          0                 3           2             4    7     1      -0.5109078267E+00       4    7    1        -0.2741977074E+02      0.6712431098E+02
          0                 4           2             4    7     1       0.3479433710E-01       4    7    1         0.1919592974E+01      0.4699793995E+01
          0                 5           2             4    7     1      -0.1384834607E-02       4    7    1        -0.7853183017E-01      0.1923023706E+00
          0                 6           1             4    7     1       0.1708827678E-04       4    7    1         0.9959946497E-03      0.2439398875E-02

    ------------------------------------------------
       NWT REQUIRED            6 OUTER ITERATIONS 
       AND A TOTAL OF         11 INNER ITERATIONS.
    ------------------------------------------------

 NO OUTPUT CONTROL FOR STRESS PERIOD    8   TIME STEP   29
 
 SOLVING FOR HEAD 
                                                   Max.-Head-Change                         Max.-Flux-Residual
  Residual-Control   Outer-Iter.   Inner-Iter.     Column Row Layer    Maximum-Head-Change  Column Row Layer    Maximum-Flux-Residual          L2-NORM 
          0                 1           2             5    8     1       0.1530331355E+00       5    8    1         0.8366134118E+01      0.1940293549E+02
          0                 2           2             5    8     1      -0.1650480027E-01       5    8    1        -0.9257690892E+00      0.2129395152E+01
          0                 3           2             4    7     1      -0.6710709299E-01       4    7    1        -0.3601933051E+01      0.8823872724E+01
          0                 4           2             4    7     1       0.6861139255E-01       4    7    1         0.3785101997E+01      0.9268870795E+01
          0                 5           2             4    7     1      -0.2571012041E-02       4    7    1        -0.1457934534E+00      0.3571084597E+00
          0                 6           2             4    7     1      -0.3196432921E-02       4    8    1        -0.1812498968E+00      0.4439696290E+00
          0                 7           2             4    7     1      -0.1569681180E-01       4    7    1        -0.8900596324E+00      0.2180189167E+01
          0                 8           2             4    7     1       0.1939961427E-03       5    8    1         0.1131741807E-01      0.2772593220E-01
          0                 9           1             4    7     1       0.2847612369E-05       5    8    1         0.1661233505E-03      0.4070028453E-03

    ------------------------------------------------
       NWT REQUIRED            9 OUTER ITERATIONS 
       AND A TOTAL OF         17 INNER ITERATIONS.
    ------------------------------------------------

 NO OUTPUT CONTROL FOR STRESS PERIOD    8   TIME STEP   30



 STREAM LISTING     PERIOD      8   STEP       30

 LAYER ROW COL. STREAM  RCH.  FLOW INTO     FLOW TO   FLOW OUT OF   OVRLND.     DIRECT     STREAM       STREAM     STREAM     STREAM   STREAMBED  STREAMBED
                SEG.NO.  NO.  STRM. RCH.    AQUIFER    STRM. RCH.    RUNOFF     PRECIP       ET          HEAD       DEPTH      WIDTH   CONDCTNC.   GRADIENT

   1    1    1     1     1    2.8125E+01  2.5915E-01   2.7866E+01  0.000E+00  0.000E+00  0.000E+00  1.09427E+03  1.223E+00  1.364E+01  6.137E-02  1.408E+00
   1    2    2     1     2    2.7866E+01  4.0087E-01   2.7465E+01  0.000E+00  0.000E+00  0.000E+00  1.08928E+03  1.218E+00  1.358E+01  9.503E-02  1.406E+00
   1    3    3     1     3    2.7465E+01  3.4142E-01   2.7123E+01  0.000E+00  0.000E+00  0.000E+00  1.08363E+03  1.213E+00  1.351E+01  8.103E-02  1.404E+00
   1    3    4     1     4    2.7123E+01  3.1403E-01   2.6809E+01  0.000E+00  0.000E+00  0.000E+00  1.07862E+03  1.209E+00  1.344E+01  7.461E-02  1.403E+00
   1    4    5     2     1    2.4809E+01  3.2739E-01   2.4482E+01  0.000E+00  0.000E+00  0.000E+00  1.07313E+03  1.197E+00  1.200E+01  7.800E-02  1.399E+00
   1    5    6     2     2    2.4482E+01  2.5133E-01   2.4231E+01  0.000E+00  0.000E+00  0.000E+00  1.06770E+03  1.189E+00  1.200E+01  6.000E-02  1.396E+00
   1    6    6     2     3    2.4231E+01  2.5089E-01   2.3980E+01  0.000E+00  0.000E+00  0.000E+00  1.06297E+03  1.181E+00  1.200E+01  6.000E-02  1.394E+00
   1    7    6     2     4    2.3980E+01  2.5044E-01   2.3729E+01  0.000E+00  0.000E+00  0.000E+00  1.05825E+03  1.174E+00  1.200E+01  6.000E-02  1.391E+00
   1    8    6     2     5    2.3729E+01  2.5000E-01   2.3479E+01  0.000E+00  0.000E+00  0.000E+00  1.05353E+03  1.167E+00  1.200E+01  6.000E-02  1.389E+00
   1    3    5     3     1    2.0000E+00  2.8252E-01   1.7175E+00  0.000E+00  0.000E+00  0.000E+00  1.07555E+03  1.909E+00  9.636E+00  7.227E-02  1.955E+00
   1    3    6     3     2    1.7175E+00  2.4905E-01   1.4684E+00  0.000E+00  0.000E+00  0.000E+00  1.07264E+03  1.727E+00  8.909E+00  6.682E-02  1.864E+00
   1    3    7     3     3    1.4684E+00  1.9718E-01   1.2712E+00  0.000E+00  0.000E+00  0.000E+00  1.06987E+03  1.555E+00  8.218E+00  5.547E-02  1.777E+00
   1    4    8     3     4    1.2712E+00  2.2567E-01   1.0456E+00  0.000E+00  0.000E+00  0.000E+00  1.06682E+03  1.364E+00  7.455E+00  6.709E-02  1.682E+00
   1    5    8     3     5    1.0456E+00  1.5790E-01   8.8768E-01  0.000E+00  0.000E+00  0.000E+00  1.06362E+03  1.164E+00  6.655E+00  4.991E-02  1.582E+00
   1    6    8     3     6    8.8768E-01  5.5980E-02   8.3170E-01  0.000E+00  0.000E+00  0.000E+00  1.06158E+03  1.036E+00  6.145E+00  1.844E-02  1.518E+00
   1    5   10     4     1    1.0000E+01  9.0919E-02   9.9091E+00  0.000E+00  0.000E+00  0.000E+00  1.07836E+03  6.368E-01  1.000E+01  2.500E-02  1.212E+00
   1    5    9     4     2    9.9091E+00  1.8158E-01   9.7275E+00  0.000E+00  0.000E+00  0.000E+00  1.07154E+03  6.315E-01  1.000E+01  5.000E-02  1.211E+00
   1    6    8     4     3    9.7275E+00  1.2689E-01   9.6006E+00  0.000E+00  0.000E+00  0.000E+00  1.06381E+03  6.256E-01  1.000E+01  3.500E-02  1.209E+00
   1    6    8     5     1    1.0432E+01  2.2686E-01   1.0205E+01  0.000E+00  0.000E+00  0.000E+00  1.05868E+03  6.790E-01  1.542E+01  6.166E-02  1.226E+00
   1    7    7     5     2    1.0205E+01  2.7894E-01   9.9265E+00  0.000E+00  0.000E+00  0.000E+00  1.05417E+03  6.732E-01  1.519E+01  7.594E-02  1.224E+00
   1    8    7     5     3    9.9265E+00  1.9221E-01   9.7343E+00  0.000E+00  0.000E+00  0.000E+00  1.04992E+03  6.676E-01  1.497E+01  5.241E-02  1.223E+00
   1    8    6     5     4    9.7343E+00  1.3577E-01   9.5985E+00  0.000E+00  0.000E+00  0.000E+00  1.04691E+03  6.637E-01  1.482E+01  3.706E-02  1.221E+00
   1    9    6     6     1    9.5985E+00  2.2097E-01   9.3776E+00  0.000E+00  0.000E+00  0.000E+00  1.04341E+03  6.828E-01  1.200E+01  6.000E-02  1.228E+00
   1   10    7     6     2    9.3776E+00  2.2039E-01   9.1572E+00  0.000E+00  0.000E+00  0.000E+00  1.03885E+03  6.732E-01  1.200E+01  6.000E-02  1.224E+00
   1   11    7     6     3    9.1572E+00  2.1981E-01   8.9374E+00  0.000E+00  0.000E+00  0.000E+00  1.03430E+03  6.636E-01  1.200E+01  6.000E-02  1.221E+00
   1   12    7     6     4    8.9374E+00  2.1923E-01   8.7181E+00  0.000E+00  0.000E+00  0.000E+00  1.02974E+03  6.539E-01  1.200E+01  6.000E-02  1.218E+00
   1   13    7     6     5    8.7181E+00 -6.6746E-02   8.7849E+00  0.000E+00  0.000E+00  0.000E+00  1.02656E+03  6.505E-01  1.200E+01  2.400E-01 -9.270E-02
   1   14    9     7     1    1.5000E+02  1.3683E+00   1.4863E+02  0.000E+00  0.000E+00  0.000E+00  1.03987E+03  2.288E+00  5.529E+01  5.593E-01  8.155E-01
   1   13    8     7     2    1.4863E+02  1.9164E+00   1.4672E+02  0.000E+00  0.000E+00  0.000E+00  1.03478E+03  2.279E+00  5.526E+01  6.148E-01  1.039E+00
   1   13    7     7     3    1.4672E+02  1.5921E+00   1.4512E+02  0.000E+00  0.000E+00  0.000E+00  1.02969E+03  2.270E+00  5.521E+01  5.584E-01  9.504E-01
   1   13    6     8     1    1.5391E+02  9.4064E-01   1.5297E+02  0.000E+00  0.000E+00  0.000E+00  1.02472E+03  2.841E+00  4.119E+01  4.198E-01  7.470E-01
   1   13    5     8     2    1.5297E+02  2.0249E-01   1.5276E+02  0.000E+00  0.000E+00  0.000E+00  1.01846E+03  2.837E+00  4.114E+01  4.192E-01  1.610E-01
   1   13    4     8     3    1.5276E+02 -2.3323E+00   1.5510E+02  0.000E+00  0.000E+00  0.000E+00  1.01222E+03  2.844E+00  4.124E+01  4.203E+00 -1.850E-01
   1   13    3     8     4    1.5510E+02 -3.5910E+00   1.5869E+02  0.000E+00  0.000E+00  0.000E+00  1.00599E+03  2.865E+00  4.154E+01  4.233E+00 -2.828E-01
   1   13    2     8     5    1.5869E+02 -2.5761E+00   1.6126E+02  0.000E+00  0.000E+00  0.000E+00  9.99761E+02  2.886E+00  4.184E+01  4.264E+00 -2.014E-01
   1   13    1     8     6    1.6126E+02 -1.9965E+00   1.6326E+02  0.000E+00  0.000E+00  0.000E+00  9.94776E+02  2.901E+00  4.207E+01  2.572E+00 -2.587E-01
   1    8    6     9     1    2.3479E+01  0.0000E+00   2.3479E+01  0.000E+00  0.000E+00  0.000E+00  1.08253E+03  3.782E+00  4.000E+00  0.000E+00  2.261E+00
   1    8    5     9     2    2.3479E+01  0.0000E+00   2.3479E+01  0.000E+00  0.000E+00  0.000E+00  1.08203E+03  3.782E+00  4.000E+00  0.000E+00  2.261E+00





UNSATURATED ZONE PACKAGE VOLUMETRIC BUDGET FOR  TIME STEP    30 STRESS PERIOD    8
  ------------------------------------------------------------------------------



     CUMULATIVE VOLUMES      L**3       RATES FOR THIS TIME STEP      L**3/T
     ------------------                 ------------------------

           IN:                                      IN:
           ---                                      ---
        INFILTRATION =   443457091.7311          INFILTRATION =          31.8820

          OUT:                                     OUT:
          ----                                     ----
              UZF ET =   263942993.8845                UZF ET =          60.8659
        UZF RECHARGE =       73224.0000          UZF RECHARGE =       0.0000E+00

            IN - OUT =   179440873.8466              IN - OUT =         -28.9839

          STORAGE:                                 STORAGE:
          --------                                 --------
      STORAGE CHANGE =   179441177.6324        STORAGE CHANGE =         -28.9839

 PERCENT DISCREPANCY IS DIFFERENCE BETWEEN IN-OUT MINUS CHANGE IN STORAGE
 DIVIDED BY THE AVERAGE OF IN AND OUT TIMES 100

 PERCENT DISCREPANCY =          -0.00     PERCENT DISCREPANCY =           0.00






1
  VOLUMETRIC BUDGET FOR AGRICULTURAL FIELDS AT  END OF TIME STEP   30, STRESS PERIOD   8
  ------------------------------------------------------------------------------

     CUMULATIVE VOLUMES      L**3       RATES FOR THIS TIME STEP      L**3/T
     ------------------                 ------------------------

           IN:                                      IN:
           ---                                      ---
               AG WELLS  =   282915040.0000                 AG WELLS  =           7.5547
      DIVERSION SEGMENTS =   144893840.0000        DIVERSION SEGMENTS =          23.4793
       IRRIGATION PONDS  =           0.0000         IRRIGATION PONDS  =           0.0000
           GW IRRIGATION =           0.0000             GW IRRIGATION =           0.0000
           SW IRRIGATION =           0.0000             SW IRRIGATION =           0.0000
        SYSTEM LOSSES GW =           0.0000          SYSTEM LOSSES GW =           0.0000
        SYSTEM LOSSES SW =           0.0000          SYSTEM LOSSES SW =           0.0000

                TOTAL IN =   427808896.0000                  TOTAL IN =          31.0340

          OUT:                                     OUT:
          ----                                     ----
               AG WELLS  =           0.0000                 AG WELLS  =           0.0000
      DIVERSION SEGMENTS =           0.0000        DIVERSION SEGMENTS =           0.0000
       IRRIGATION PONDS  =           0.0000         IRRIGATION PONDS  =           0.0000
           GW IRRIGATION =   282915040.0000             GW IRRIGATION =           7.5547
           SW IRRIGATION =   144896656.0000             SW IRRIGATION =          23.4797
        SYSTEM LOSSES GW =           0.0000          SYSTEM LOSSES GW =           0.0000
        SYSTEM LOSSES SW =           0.0000          SYSTEM LOSSES SW =           0.0000

               TOTAL OUT =   427811712.0000                 TOTAL OUT =          31.0345

                IN - OUT =       -2816.0000                  IN - OUT =      -4.6921E-04

     PERCENT DISCREPANCY =          -0.00         PERCENT DISCREPANCY =          -0.00



1
  VOLUMETRIC BUDGET FOR ENTIRE MODEL AT END OF TIME STEP   30, STRESS PERIOD   8
  ------------------------------------------------------------------------------

     CUMULATIVE VOLUMES      L**3       RATES FOR THIS TIME STEP      L**3/T
     ------------------                 ------------------------

           IN:                                      IN:
           ---                                      ---
             STORAGE     =   316655456.0000               STORAGE     =          37.7410
       CONSTANT HEAD     =           0.0000         CONSTANT HEAD     =           0.0000
     HEAD DEP BOUNDS     =     5324802.0000       HEAD DEP BOUNDS     =           0.2880
      STREAM LEAKAGE     =   219449824.0000        STREAM LEAKAGE     =          11.9473
        UZF RECHARGE     =       73223.9531          UZF RECHARGE     =           0.0000
               GW ET     =           0.0000                 GW ET     =           0.0000
     SURFACE LEAKAGE     =           0.0000       SURFACE LEAKAGE     =           0.0000
           AG WELLS      =           0.0000             AG WELLS      =           0.0000

                TOTAL IN =   541503296.0000                  TOTAL IN =          49.9762

          OUT:                                     OUT:
          ----                                     ----
             STORAGE     =    62010352.0000               STORAGE     =          31.5719
       CONSTANT HEAD     =           0.0000         CONSTANT HEAD     =           0.0000
     HEAD DEP BOUNDS     =     5334629.0000       HEAD DEP BOUNDS     =           0.2870
      STREAM LEAKAGE     =   191246336.0000        STREAM LEAKAGE     =          10.5626
        UZF RECHARGE     =           0.0000          UZF RECHARGE     =           0.0000
               GW ET     =           0.0000                 GW ET     =           0.0000
     SURFACE LEAKAGE     =           0.0000       SURFACE LEAKAGE     =           0.0000
           AG WELLS      =   282915040.0000             AG WELLS      =           7.5547

               TOTAL OUT =   541506368.0000                 TOTAL OUT =          49.9762

                IN - OUT =       -3072.0000                  IN - OUT =       1.9073E-05

     PERCENT DISCREPANCY =          -0.00         PERCENT DISCREPANCY =           0.00






         TIME SUMMARY AT END OF TIME STEP   30 IN STRESS PERIOD    8
                    SECONDS     MINUTES      HOURS       DAYS        YEARS
                    -----------------------------------------------------------
   TIME STEP LENGTH  87667.      1461.1      24.352      1.0147     2.77799E-03
 STRESS PERIOD TIME 2.63000E+06  43833.      730.56      30.440     8.33397E-02
         TOTAL TIME 1.84964E+07 3.08274E+05  5137.9      214.08     0.58612    
1
1
                            STRESS PERIOD NO.    9, LENGTH =   2630000.    
                            -----------------------------------------------

                              NUMBER OF TIME STEPS =    30

                               MULTIPLIER FOR DELT =     1.000

                            INITIAL TIME STEP SIZE =   87666.66    

 REUSING NON-PARAMETER GHB CELLS FROM LAST STRESS PERIOD

      2 GHB CELLS

 REUSING STREAM SEGMENT DATA FROM LAST STRESS PERIOD



            AREAL INFILTRATION RATE
 READING ON UNIT   19 WITH FORMAT: (FREE)              

            1           2           3           4           5           6           7           8           9          10
 ........................................................................................................................
   1   1.0000E-10  2.0000E-10   0.000       0.000       0.000       0.000       0.000       0.000       0.000       0.000    
   2   2.0000E-10  1.0000E-10  2.0000E-10   0.000       0.000      8.0000E-10  8.0000E-10  5.0000E-10   0.000       0.000    
   3    0.000      5.0000E-10  1.0000E-10  1.0000E-10  8.0000E-10  8.0000E-10  5.0000E-10  5.0000E-10   0.000       0.000    
   4   8.0000E-10  5.0000E-10  1.0000E-10  1.0000E-10  1.0000E-10  1.0000E-10  1.0000E-10  1.0000E-10  2.0000E-10   0.000    
   5   8.0000E-10  5.0000E-10  1.0000E-10  1.0000E-10  1.0000E-10  1.0000E-10  1.0000E-10  1.0000E-10  1.0000E-10  1.0000E-10
   6   8.0000E-10  5.0000E-10  5.0000E-10  2.0000E-10  2.0000E-10  1.0000E-10  1.0000E-10  1.0000E-10  1.0000E-10  5.0000E-10
   7   8.0000E-10  5.0000E-10  5.0000E-10  2.0000E-10  2.0000E-10  1.0000E-10  1.0000E-10  2.0000E-10  2.0000E-10   0.000    
   8    0.000      5.0000E-10  5.0000E-10  2.0000E-10  2.0000E-10  1.0000E-10  1.0000E-10  2.0000E-10  5.0000E-10   0.000    
   9    0.000      5.0000E-10  5.0000E-10  2.0000E-10  2.0000E-10  1.0000E-10  1.0000E-10  2.0000E-10  5.0000E-10   0.000    
  10    0.000      5.0000E-10  5.0000E-10  2.0000E-10  2.0000E-10  1.0000E-10  1.0000E-10  2.0000E-10  5.0000E-10  8.0000E-10
  11    0.000      1.0000E-10  1.0000E-10  1.0000E-10  1.0000E-10  1.0000E-10  1.0000E-10  2.0000E-10  5.0000E-10   0.000    
  12   1.0000E-10  1.0000E-10  1.0000E-10  1.0000E-10  1.0000E-10  1.0000E-10  1.0000E-10  1.0000E-10  2.0000E-10   0.000    
  13   1.0000E-10  1.0000E-10  2.0000E-10  2.0000E-10  2.0000E-10  2.0000E-10  2.0000E-10  1.0000E-10  1.0000E-10   0.000    
  14    0.000      2.0000E-10  5.0000E-10  5.0000E-10  5.0000E-10  5.0000E-10  5.0000E-10  2.0000E-10  1.0000E-10   0.000    
  15    0.000       0.000      8.0000E-10  8.0000E-10  8.0000E-10  8.0000E-10   0.000       0.000       0.000       0.000    

                  ET RATE =  3.250000E-07

 USING ET EXTINCTION DEPTH FROM PREVIOUS STRESS PERIOD. CURRENT PERIOD IS:       9

 USING EXTINCTION WATER CONTENT FROM PREVIOUS STRESS PERIOD. CURRENT PERIOD IS:       9

 USING AIR ENTRY PRESSURE FROM PREVIOUS STRESS PERIOD. CURRENT PERIOD IS:       9

 USING ROOT PRESSURE HEAD FROM PREVIOUS STRESS PERIOD. CURRENT PERIOD IS:       9

 USING ROOT ACTIVITY FROM PREVIOUS STRESS PERIOD. CURRENT PERIOD IS:       9

 PROCESSING AG STRESS PERIOD DATA

 READING AG STRESS PERIOD DATA

 READING IRRIGATION SEGMENT

 READING IRRIGATION WELL

 READING SUPPLEMENTAL WELL

 NO IRRPOND OR REUSING IRRPOND DATA FROM LAST STRESS PERIOD

 END PROCESSING AG STRESS PERIOD DATA OPTIONS
 
 SOLVING FOR HEAD 
                                                   Max.-Head-Change                         Max.-Flux-Residual
  Residual-Control   Outer-Iter.   Inner-Iter.     Column Row Layer    Maximum-Head-Change  Column Row Layer    Maximum-Flux-Residual          L2-NORM 
          0                 1           2             5    8     1       0.1462736488E+00       5    8    1         0.7989942844E+01      0.1871438329E+02
          0                 2           2             5    6     1      -0.1605110207E+00       5    8    1        -0.8850295326E+01      0.2131684170E+02
          0                 3           2             5    6     1       0.1093011740E-01       5    8    1         0.6195152026E+00      0.1492166084E+01
          0                 4           2             5    6     1      -0.4349200152E-03       5    8    1        -0.2533823370E-01      0.6102974033E-01
          0                 5           1             5    6     1       0.5362744318E-05       5    8    1         0.3211134854E-03      0.7734349353E-03

    ------------------------------------------------
       NWT REQUIRED            5 OUTER ITERATIONS 
       AND A TOTAL OF          9 INNER ITERATIONS.
    ------------------------------------------------

 NO OUTPUT CONTROL FOR STRESS PERIOD    9   TIME STEP    1
 
 SOLVING FOR HEAD 
                                                   Max.-Head-Change                         Max.-Flux-Residual
  Residual-Control   Outer-Iter.   Inner-Iter.     Column Row Layer    Maximum-Head-Change  Column Row Layer    Maximum-Flux-Residual          L2-NORM 
          0                 1           2             5    8     1       0.1436302278E+00       5    8    1         0.7841137856E+01      0.1850165224E+02
          0                 2           2             5    8     1      -0.2652606946E-01       5    8    1        -0.1475415925E+01      0.3410303028E+01
          0                 3           2             4    7     1      -0.4345778515E-01       4    7    1        -0.2332659730E+01      0.5703300939E+01
          0                 4           2             4    7     1       0.4386240436E-01       4    7    1         0.2419758448E+01      0.5925044679E+01
          0                 5           2             4    7     1      -0.1551630637E-01       4    7    1        -0.8798390871E+00      0.2155095654E+01
          0                 6           2             4    7     1      -0.2248419371E-02       4    7    1        -0.1274919465E+00      0.3122801301E+00
          0                 7           2             4    7     1      -0.2947733271E-02       4    7    1        -0.1671444586E+00      0.4094165335E+00
          0                 8           2             4    7     1      -0.1319048868E-01       4    7    1        -0.7479294848E+00      0.1832043053E+01
          0                 9           2             4    7     1       0.1631491480E-03       5    8    1         0.9517665353E-02      0.2331681434E-01
          0                10           1             4    7     1       0.2393235916E-05       5    8    1         0.1396132557E-03      0.3420310082E-03

    ------------------------------------------------
       NWT REQUIRED           10 OUTER ITERATIONS 
       AND A TOTAL OF         19 INNER ITERATIONS.
    ------------------------------------------------

 NO OUTPUT CONTROL FOR STRESS PERIOD    9   TIME STEP    2
 
 SOLVING FOR HEAD 
                                                   Max.-Head-Change                         Max.-Flux-Residual
  Residual-Control   Outer-Iter.   Inner-Iter.     Column Row Layer    Maximum-Head-Change  Column Row Layer    Maximum-Flux-Residual          L2-NORM 
          0                 1           2             5    8     1       0.1382891053E+00       5    8    1         0.7543759017E+01      0.1797256181E+02
          0                 2           2             5    8     1      -0.7304333344E-01       5    8    1        -0.4035663895E+01      0.9643332511E+01
          0                 3           2             4    7     1      -0.5083241466E+00       4    7    1        -0.2727997235E+02      0.6678803368E+02
          0                 4           2             4    7     1       0.3461842410E-01       4    7    1         0.1909808565E+01      0.4676254370E+01
          0                 5           2             4    7     1      -0.1377833125E-02       4    7    1        -0.7813154284E-01      0.1913391015E+00
          0                 6           1             4    7     1       0.1700188162E-04       4    7    1         0.9909179685E-03      0.2427177698E-02

    ------------------------------------------------
       NWT REQUIRED            6 OUTER ITERATIONS 
       AND A TOTAL OF         11 INNER ITERATIONS.
    ------------------------------------------------

 NO OUTPUT CONTROL FOR STRESS PERIOD    9   TIME STEP    3
 
 SOLVING FOR HEAD 
                                                   Max.-Head-Change                         Max.-Flux-Residual
  Residual-Control   Outer-Iter.   Inner-Iter.     Column Row Layer    Maximum-Head-Change  Column Row Layer    Maximum-Flux-Residual          L2-NORM 
          0                 1           2             5    8     1       0.1485021613E+00       5    8    1         0.8104785345E+01      0.1916449858E+02
          0                 2           2             5    8     1      -0.1444488540E-01       5    8    1        -0.8104559796E+00      0.1918150117E+01
          0                 3           2             4    7     1      -0.6377812820E-02       4    7    1        -0.3427244571E+00      0.8096505962E+00
          0                 4           2             4    7     1       0.7204998270E-02       4    7    1         0.3975035748E+00      0.9710966067E+00
          0                 5           2             4    7     1      -0.2829034362E-03       4    7    1        -0.1604353860E-01      0.3920164887E-01
          0                 6           1             4    7     1       0.3490911519E-05       4    7    1         0.2034783483E-03      0.4973667257E-03

    ------------------------------------------------
       NWT REQUIRED            6 OUTER ITERATIONS 
       AND A TOTAL OF         11 INNER ITERATIONS.
    ------------------------------------------------

 NO OUTPUT CONTROL FOR STRESS PERIOD    9   TIME STEP    4
 
 SOLVING FOR HEAD 
                                                   Max.-Head-Change                         Max.-Flux-Residual
  Residual-Control   Outer-Iter.   Inner-Iter.     Column Row Layer    Maximum-Head-Change  Column Row Layer    Maximum-Flux-Residual          L2-NORM 
          0                 1           2             5    8     1       0.1415218696E+00       5    8    1         0.7716949935E+01      0.1845397126E+02
          0                 2           2             5    6     1      -0.1545649864E+00       5    8    1        -0.8517722262E+01      0.2058565989E+02
          0                 3           2             4    7     1       0.5605782828E-01       5    8    1         0.3114785603E+01      0.7608250797E+01
          0                 4           2             4    7     1      -0.2230610428E-02       5    8    1        -0.1273718054E+00      0.3111604170E+00
          0                 5           1             4    7     1       0.2750436620E-04       5    6    1         0.1612571372E-02      0.3946265653E-02

    ------------------------------------------------
       NWT REQUIRED            5 OUTER ITERATIONS 
       AND A TOTAL OF          9 INNER ITERATIONS.
    ------------------------------------------------

 NO OUTPUT CONTROL FOR STRESS PERIOD    9   TIME STEP    5
 
 SOLVING FOR HEAD 
                                                   Max.-Head-Change                         Max.-Flux-Residual
  Residual-Control   Outer-Iter.   Inner-Iter.     Column Row Layer    Maximum-Head-Change  Column Row Layer    Maximum-Flux-Residual          L2-NORM 
          0                 1           2             5    8     1       0.1378121903E+00       5    8    1         0.7509986933E+01      0.1809936056E+02
          0                 2           2             5    6     1      -0.1038656245E+00       5    8    1        -0.5728264207E+01      0.1379800101E+02
          0                 3           2             4    7     1      -0.1685960833E+00       4    7    1        -0.9048062518E+01      0.2213243588E+02
          0                 4           2             4    7     1       0.1148222605E-01       4    7    1         0.6334565233E+00      0.1549676958E+01
          0                 5           2             4    7     1      -0.4569976384E-03       4    7    1        -0.2591511086E-01      0.6340899066E-01
          0                 6           1             4    7     1       0.5639161237E-05       4    7    1         0.3286743654E-03      0.8043755447E-03

    ------------------------------------------------
       NWT REQUIRED            6 OUTER ITERATIONS 
       AND A TOTAL OF         11 INNER ITERATIONS.
    ------------------------------------------------

 NO OUTPUT CONTROL FOR STRESS PERIOD    9   TIME STEP    6
 
 SOLVING FOR HEAD 
                                                   Max.-Head-Change                         Max.-Flux-Residual
  Residual-Control   Outer-Iter.   Inner-Iter.     Column Row Layer    Maximum-Head-Change  Column Row Layer    Maximum-Flux-Residual          L2-NORM 
          0                 1           2             5    8     1       0.1393127474E+00       5    8    1         0.7590701857E+01      0.1831188460E+02
          0                 2           2             5    8     1      -0.1494468821E-01       5    8    1        -0.8357878193E+00      0.1997271366E+01
          0                 3           2             4    7     1      -0.2626995116E-01       4    7    1        -0.1410131342E+01      0.3442931424E+01
          0                 4           2             4    7     1       0.2737651024E-01       4    7    1         0.1510255135E+01      0.3697250108E+01
          0                 5           2             4   13     1      -0.1236371855E-03       4   13    1        -0.7274457762E-02      0.1337678182E-01
          0                 6           2             4    7     1      -0.3038537552E-03       5    6    1        -0.1722963115E-01      0.4510304265E-01
          0                 7           2             4    7     1      -0.5129000972E-02       4    7    1        -0.2908223476E+00      0.7173786322E+00
          0                 8           2             4    7     1      -0.3526459666E-02       4    7    1        -0.1999534812E+00      0.5078551234E+00
          0                 9           2             4    7     1       0.8589731134E-02       5    8    1         0.5005835534E+00      0.1226193029E+01
          0                10           2             4    7     1       0.1479147684E-03       4   13    1        -0.8622869497E-02      0.2611611331E-01
                                                   Max.-Head-Change                         Max.-Flux-Residual
  Residual-Control   Outer-Iter.   Inner-Iter.     Column Row Layer    Maximum-Head-Change  Column Row Layer    Maximum-Flux-Residual          L2-NORM 
          0                11           2             4   13     1      -0.1447549905E-03       4   13    1        -0.8506863397E-02      0.1559593520E-01
          0                12           2             4   13     1      -0.1575913861E-03       4   13    1        -0.9260535745E-02      0.2160387826E-01
          0                13           1             4   13     1      -0.5497840356E-04       4   13    1        -0.3230487039E-02      0.5882946232E-02

    ------------------------------------------------
       NWT REQUIRED           13 OUTER ITERATIONS 
       AND A TOTAL OF         25 INNER ITERATIONS.
    ------------------------------------------------

 NO OUTPUT CONTROL FOR STRESS PERIOD    9   TIME STEP    7
 
 SOLVING FOR HEAD 
                                                   Max.-Head-Change                         Max.-Flux-Residual
  Residual-Control   Outer-Iter.   Inner-Iter.     Column Row Layer    Maximum-Head-Change  Column Row Layer    Maximum-Flux-Residual          L2-NORM 
          0                 1           2             5    8     1       0.1330213222E+00       5    8    1         0.7241580514E+01      0.1766917144E+02
          0                 2           2             5    6     1      -0.7592406953E-01       5    8    1        -0.4188994180E+01      0.1008375705E+02
          0                 3           2             4    7     1      -0.4960192901E+00       4    7    1        -0.2661897583E+02      0.6517593446E+02
          0                 4           2             4    7     1       0.3378042675E-01       4    7    1         0.1863534124E+01      0.4563379864E+01
          0                 5           2             4    7     1      -0.1344480178E-02       4    7    1        -0.7623841596E-01      0.1867204706E+00
          0                 6           1             4    7     1       0.1659032052E-04       4    7    1         0.9669080769E-03      0.2368588625E-02

    ------------------------------------------------
       NWT REQUIRED            6 OUTER ITERATIONS 
       AND A TOTAL OF         11 INNER ITERATIONS.
    ------------------------------------------------

 NO OUTPUT CONTROL FOR STRESS PERIOD    9   TIME STEP    8
 
 SOLVING FOR HEAD 
                                                   Max.-Head-Change                         Max.-Flux-Residual
  Residual-Control   Outer-Iter.   Inner-Iter.     Column Row Layer    Maximum-Head-Change  Column Row Layer    Maximum-Flux-Residual          L2-NORM 
          0                 1           2             5    8     1       0.1434839409E+00       5    8    1         0.7817041819E+01      0.1885237285E+02
          0                 2           2             5    8     1      -0.1395676365E-01       5    8    1        -0.7816825956E+00      0.1886995194E+01
          0                 3           2             4    7     1      -0.6787349861E-02       4    7    1        -0.3645971194E+00      0.8696982338E+00
          0                 4           2             4    7     1       0.7680183401E-02       4    7    1         0.4237022211E+00      0.1035739901E+01
          0                 5           2             4    7     1      -0.3019918431E-03       4    7    1        -0.1712532221E-01      0.4187120595E-01
          0                 6           1             4    7     1       0.3726454353E-05       4    7    1         0.2171983970E-03      0.5312420311E-03

    ------------------------------------------------
       NWT REQUIRED            6 OUTER ITERATIONS 
       AND A TOTAL OF         11 INNER ITERATIONS.
    ------------------------------------------------

 NO OUTPUT CONTROL FOR STRESS PERIOD    9   TIME STEP    9
 
 SOLVING FOR HEAD 
                                                   Max.-Head-Change                         Max.-Flux-Residual
  Residual-Control   Outer-Iter.   Inner-Iter.     Column Row Layer    Maximum-Head-Change  Column Row Layer    Maximum-Flux-Residual          L2-NORM 
          0                 1           2             5    8     1       0.1369809194E+00       5    8    1         0.7456166553E+01      0.1818876044E+02
          0                 2           2             5    7     1      -0.1539018353E+00       5    8    1        -0.8466997079E+01      0.2052542036E+02
          0                 3           2             4    7     1       0.5537203323E-01       5    8    1         0.3072488177E+01      0.7509277531E+01
          0                 4           2             4    7     1      -0.2203321772E-02       5    8    1        -0.1256409388E+00      0.3071122158E+00
          0                 5           1             4    7     1       0.2716788562E-04       5    6    1         0.1590702783E-02      0.3895174996E-02

    ------------------------------------------------
       NWT REQUIRED            5 OUTER ITERATIONS 
       AND A TOTAL OF          9 INNER ITERATIONS.
    ------------------------------------------------

 NO OUTPUT CONTROL FOR STRESS PERIOD    9   TIME STEP   10
 
 SOLVING FOR HEAD 
                                                   Max.-Head-Change                         Max.-Flux-Residual
  Residual-Control   Outer-Iter.   Inner-Iter.     Column Row Layer    Maximum-Head-Change  Column Row Layer    Maximum-Flux-Residual          L2-NORM 
          0                 1           2             5    8     1       0.1337174955E+00       5    8    1         0.7274390225E+01      0.1787277931E+02
          0                 2           2             5    6     1      -0.1034026268E+00       5    8    1        -0.5698560810E+01      0.1378351553E+02
          0                 3           2             4    7     1      -0.1685210738E+00       4    7    1        -0.9043779424E+01      0.2212793822E+02
          0                 4           2             4    7     1       0.1147710086E-01       4    7    1         0.6331557398E+00      0.1549359158E+01
          0                 5           2             4    7     1      -0.4567936506E-03       4    7    1        -0.2590280504E-01      0.6339589295E-01
          0                 6           1             4    7     1       0.5636644016E-05       4    7    1         0.3285182793E-03      0.8042070771E-03

    ------------------------------------------------
       NWT REQUIRED            6 OUTER ITERATIONS 
       AND A TOTAL OF         11 INNER ITERATIONS.
    ------------------------------------------------

 NO OUTPUT CONTROL FOR STRESS PERIOD    9   TIME STEP   11
 
 SOLVING FOR HEAD 
                                                   Max.-Head-Change                         Max.-Flux-Residual
  Residual-Control   Outer-Iter.   Inner-Iter.     Column Row Layer    Maximum-Head-Change  Column Row Layer    Maximum-Flux-Residual          L2-NORM 
          0                 1           2             5    8     1       0.1356155786E+00       5    8    1         0.7377546313E+01      0.1811085126E+02
          0                 2           2             5    8     1      -0.1458098780E-01       5    8    1        -0.8142477518E+00      0.1978862565E+01
          0                 3           2             4    7     1      -0.2625118356E-01       4    7    1        -0.1409014439E+01      0.3445809314E+01
          0                 4           2             4    7     1       0.2738683303E-01       4    7    1         0.1510791226E+01      0.3698958836E+01
          0                 5           2             4   13     1      -0.1243073652E-03       4   13    1        -0.7313865119E-02      0.1335337285E-01
          0                 6           2             4    7     1      -0.3078823877E-03       5    6    1        -0.1745761248E-01      0.4566866431E-01
          0                 7           2             4    7     1      -0.5288954920E-02       4    7    1        -0.2998865330E+00      0.7396869150E+00
          0                 8           2             4    7     1       0.5399310821E-02       5    8    1         0.3146551006E+00      0.7710051351E+00
          0                 9           2             4    7     1       0.1514948227E-03       4    7    1         0.8828147442E-02      0.2510833172E-01
          0                10           2             4    7     1      -0.3396124898E-03       5    8    1        -0.2033962725E-01      0.5282600463E-01
                                                   Max.-Head-Change                         Max.-Flux-Residual
  Residual-Control   Outer-Iter.   Inner-Iter.     Column Row Layer    Maximum-Head-Change  Column Row Layer    Maximum-Flux-Residual          L2-NORM 
          0                11           2             4   13     1      -0.1748981777E-03       4   13    1        -0.1028281820E-01      0.2190990623E-01
          0                12           2             4    7     1      -0.4427942157E-02       4    7    1        -0.2651836500E+00      0.6547045271E+00
          0                13           2             4    7     1       0.4123644179E-02       5    8    1         0.2537822096E+00      0.6217907881E+00
          0                14           2             4    7     1       0.3915171297E-03       4    7    1         0.2409442958E-01      0.6137299213E-01
          0                15           2             4    7     1      -0.9951570468E-02       5    8    1        -0.6292928531E+00      0.1541555174E+01
          0                16           2             4    7     1       0.3555505479E-03       5    8    1         0.2310721298E-01      0.5660978195E-01
          0                17           1             4    7     1       0.4131355052E-04       5    8    1         0.2684848973E-02      0.6576168572E-02

    ------------------------------------------------
       NWT REQUIRED           17 OUTER ITERATIONS 
       AND A TOTAL OF         33 INNER ITERATIONS.
    ------------------------------------------------

 NO OUTPUT CONTROL FOR STRESS PERIOD    9   TIME STEP   12
 
 SOLVING FOR HEAD 
                                                   Max.-Head-Change                         Max.-Flux-Residual
  Residual-Control   Outer-Iter.   Inner-Iter.     Column Row Layer    Maximum-Head-Change  Column Row Layer    Maximum-Flux-Residual          L2-NORM 
          0                 1           2             5    8     1       0.1299942803E+00       5    8    1         0.7065863336E+01      0.1753762653E+02
          0                 2           2             5    6     1      -0.6756943890E-01       5    8    1        -0.3726436742E+01      0.9007455309E+01
          0                 3           2             5    6     1       0.3765264837E-02       5    8    1         0.2136109138E+00      0.5176018186E+00
          0                 4           2             4    7     1      -0.5532876974E-03       5    8    1        -0.3195342374E-01      0.7785905330E-01
          0                 5           2             4    7     1      -0.1221194718E-01       4    7    1        -0.6924354811E+00      0.1696102307E+01
          0                 6           2             4    7     1      -0.1164380597E-02       4    7    1        -0.6602071202E-01      0.1617084351E+00
          0                 7           2             4    7     1      -0.1331120811E-02       4    7    1        -0.7547492517E-01      0.1848739231E+00
          0                 8           2             4    7     1      -0.1403549336E-02       4    7    1        -0.7958085970E-01      0.1949313625E+00
          0                 9           2             4    7     1      -0.1379181976E-01       4    7    1        -0.7819853297E+00      0.1915463830E+01
          0                10           2             4    7     1      -0.1253724926E-02       4    7    1        -0.7108370184E-01      0.1741089867E+00
                                                   Max.-Head-Change                         Max.-Flux-Residual
  Residual-Control   Outer-Iter.   Inner-Iter.     Column Row Layer    Maximum-Head-Change  Column Row Layer    Maximum-Flux-Residual          L2-NORM 
          0                11           2             4    7     1      -0.1414133206E-02       4    7    1        -0.8017856495E-01      0.1963953483E+00
          0                12           2             4    7     1      -0.1391540702E-01       4    7    1        -0.7889690955E+00      0.1932570482E+01
          0                13           2             4    7     1       0.1726649295E-03       5    8    1         0.1007188647E-01      0.2467446504E-01
          0                14           1             4    7     1       0.2526024133E-05       5    8    1         0.1473464722E-03      0.3609746440E-03

    ------------------------------------------------
       NWT REQUIRED           14 OUTER ITERATIONS 
       AND A TOTAL OF         27 INNER ITERATIONS.
    ------------------------------------------------

 NO OUTPUT CONTROL FOR STRESS PERIOD    9   TIME STEP   13
 
 SOLVING FOR HEAD 
                                                   Max.-Head-Change                         Max.-Flux-Residual
  Residual-Control   Outer-Iter.   Inner-Iter.     Column Row Layer    Maximum-Head-Change  Column Row Layer    Maximum-Flux-Residual          L2-NORM 
          0                 1           2             5    6     1       0.1275311098E+00       5    8    1         0.6926445723E+01      0.1729296625E+02
          0                 2           2             5    6     1      -0.6260501674E-01       5    8    1        -0.3452240244E+01      0.8352006644E+01
          0                 3           2             4    7     1      -0.1961867184E-02       4    7    1        -0.1054892528E+00      0.2521528183E+00
          0                 4           2             4    7     1       0.4315070281E-02       4    7    1         0.2380529738E+00      0.5817429602E+00
          0                 5           2             4    7     1      -0.1365697831E-02       4    7    1        -0.7743801398E-01      0.1896315678E+00
          0                 6           2             4    7     1      -0.1274498663E-02       4    7    1        -0.7226501369E-01      0.1770120170E+00
          0                 7           2             4    7     1      -0.1191662152E-01       4    7    1        -0.6756752893E+00      0.1655058578E+01
          0                 8           2             4    7     1      -0.1250104723E-02       4    7    1        -0.7087983579E-01      0.1736107266E+00
          0                 9           2             4    7     1      -0.1414729982E-02       4    7    1        -0.8021385638E-01      0.1964818202E+00
          0                10           2             4    7     1      -0.1368256695E-01       4    7    1        -0.7757816970E+00      0.1900268085E+01
                                                   Max.-Head-Change                         Max.-Flux-Residual
  Residual-Control   Outer-Iter.   Inner-Iter.     Column Row Layer    Maximum-Head-Change  Column Row Layer    Maximum-Flux-Residual          L2-NORM 
          0                11           2             4    7     1       0.1695017163E-03       5    8    1         0.9887561120E-02      0.2422292743E-01
          0                12           1             4    7     1       0.2483133278E-05       5    8    1         0.1448473809E-03      0.3548552511E-03

    ------------------------------------------------
       NWT REQUIRED           12 OUTER ITERATIONS 
       AND A TOTAL OF         23 INNER ITERATIONS.
    ------------------------------------------------

 NO OUTPUT CONTROL FOR STRESS PERIOD    9   TIME STEP   14
 
 SOLVING FOR HEAD 
                                                   Max.-Head-Change                         Max.-Flux-Residual
  Residual-Control   Outer-Iter.   Inner-Iter.     Column Row Layer    Maximum-Head-Change  Column Row Layer    Maximum-Flux-Residual          L2-NORM 
          0                 1           2             5    6     1       0.1247322245E+00       5    8    1         0.6762581841E+01      0.1699743897E+02
          0                 2           2             5    6     1      -0.6691722811E-01       5    8    1        -0.3687868001E+01      0.8946717568E+01
          0                 3           2             5    6     1       0.3546852443E-02       5    8    1         0.2010787319E+00      0.4894249057E+00
          0                 4           2             5    7     1      -0.3788569276E-03       5    8    1        -0.2191198119E-01      0.5342708342E-01
          0                 5           2             4    7     1      -0.1250878925E-02       4    7    1        -0.7092644307E-01      0.1737242615E+00
          0                 6           2             4    7     1      -0.1307279740E-02       4    7    1        -0.7412353440E-01      0.1815638959E+00
          0                 7           2             4    7     1      -0.9256840279E-02       4    7    1        -0.5248635856E+00      0.1285646838E+01
          0                 8           2             4    7     1      -0.1224796775E-02       4    7    1        -0.6944484918E-01      0.1700974442E+00
          0                 9           2             4    7     1      -0.1321412296E-01       4    7    1        -0.7492269669E+00      0.1835222610E+01
          0                10           2             4    7     1      -0.1259433105E-02       4    7    1        -0.7140705805E-01      0.1749013743E+00
                                                   Max.-Head-Change                         Max.-Flux-Residual
  Residual-Control   Outer-Iter.   Inner-Iter.     Column Row Layer    Maximum-Head-Change  Column Row Layer    Maximum-Flux-Residual          L2-NORM 
          0                11           2             4    7     1      -0.1413646512E-02       4    7    1        -0.8015060646E-01      0.1963268674E+00
          0                12           2             4    7     1      -0.8626576414E-02       4    7    1        -0.4891032524E+00      0.1198052178E+01
          0                13           2             4    7     1       0.1070404208E-03       5    8    1         0.6243848981E-02      0.1529641795E-01
          0                14           1             4    7     1       0.1565962119E-05       5    8    1         0.9134427455E-04      0.2237853621E-03

    ------------------------------------------------
       NWT REQUIRED           14 OUTER ITERATIONS 
       AND A TOTAL OF         27 INNER ITERATIONS.
    ------------------------------------------------

 NO OUTPUT CONTROL FOR STRESS PERIOD    9   TIME STEP   15
 
 SOLVING FOR HEAD 
                                                   Max.-Head-Change                         Max.-Flux-Residual
  Residual-Control   Outer-Iter.   Inner-Iter.     Column Row Layer    Maximum-Head-Change  Column Row Layer    Maximum-Flux-Residual          L2-NORM 
          0                 1           2             5    6     1       0.1224159732E+00       5    6    1         0.6629446667E+01      0.1675367005E+02
          0                 2           2             5    6     1      -0.6596685213E-01       5    6    1        -0.3634690223E+01      0.8830558775E+01
          0                 3           2             5    6     1       0.2717291011E-02       5    6    1         0.1541357809E+00      0.3767693441E+00
          0                 4           2             4    7     1       0.3730579831E-03       4    7    1         0.2058567790E-01      0.4995131978E-01
          0                 5           2             4    7     1      -0.7875068667E-02       4    7    1        -0.4465255330E+00      0.1093733086E+01
          0                 6           2             4    7     1      -0.1273727454E-01       4    7    1        -0.7222099388E+00      0.1769039511E+01
          0                 7           2             4    7     1      -0.1269109154E-02       4    7    1        -0.7195770701E-01      0.1762503916E+00
          0                 8           2             4    7     1      -0.1397582124E-01       4    7    1        -0.7924208036E+00      0.1941025388E+01
          0                 9           2             4    7     1       0.1728665789E-03       5    8    1         0.1008400637E-01      0.2470421388E-01
          0                10           1             4    7     1       0.2535731865E-05       5    8    1         0.1479179718E-03      0.3623758639E-03

    ------------------------------------------------
       NWT REQUIRED           10 OUTER ITERATIONS 
       AND A TOTAL OF         19 INNER ITERATIONS.
    ------------------------------------------------

 NO OUTPUT CONTROL FOR STRESS PERIOD    9   TIME STEP   16
 
 SOLVING FOR HEAD 
                                                   Max.-Head-Change                         Max.-Flux-Residual
  Residual-Control   Outer-Iter.   Inner-Iter.     Column Row Layer    Maximum-Head-Change  Column Row Layer    Maximum-Flux-Residual          L2-NORM 
          0                 1           2             5    6     1       0.1201687666E+00       5    6    1         0.6505157617E+01      0.1651558604E+02
          0                 2           2             5    7     1      -0.6615961982E-01       5    6    1        -0.3644015758E+01      0.8865665676E+01
          0                 3           2             5    6     1       0.3127229282E-02       5    6    1         0.1772719036E+00      0.4334377278E+00
          0                 4           2             5    6     1      -0.1151176711E-03       5    6    1        -0.6709220888E-02      0.1669302683E-01
          0                 5           2             4    7     1      -0.1410817218E-02       4    7    1        -0.7999479689E-01      0.1959387471E+00
          0                 6           2             4    7     1      -0.1325106484E-01       4    7    1        -0.7513409119E+00      0.1840400746E+01
          0                 7           2             4    7     1      -0.1175271575E-02       4    7    1        -0.6663695216E-01      0.1632171644E+00
          0                 8           2             4    7     1      -0.1393733753E-02       4    7    1        -0.7902363987E-01      0.1935664441E+00
          0                 9           2             4    7     1      -0.1401688784E-01       4    7    1        -0.7947397021E+00      0.1946705544E+01
          0                10           2             4    7     1       0.1735149920E-03       5    8    1         0.1012169793E-01      0.2479653663E-01
          0                11           1             4    7     1       0.2543509687E-05       5    8    1         0.1483697438E-03      0.3634830568E-03

    ------------------------------------------------
       NWT REQUIRED           11 OUTER ITERATIONS 
       AND A TOTAL OF         21 INNER ITERATIONS.
    ------------------------------------------------

 NO OUTPUT CONTROL FOR STRESS PERIOD    9   TIME STEP   17
 
 SOLVING FOR HEAD 
                                                   Max.-Head-Change                         Max.-Flux-Residual
  Residual-Control   Outer-Iter.   Inner-Iter.     Column Row Layer    Maximum-Head-Change  Column Row Layer    Maximum-Flux-Residual          L2-NORM 
          0                 1           2             5    6     1       0.1179339363E+00       5    6    1         0.6381648572E+01      0.1627701879E+02
          0                 2           2             5    7     1      -0.6847666169E-01       5    6    1        -0.3762626913E+01      0.9167184494E+01
          0                 3           2             4    7     1      -0.5093066177E+00       4    7    1        -0.2733107340E+02      0.6693380291E+02
          0                 4           2             4    7     1       0.3468533633E-01       4    7    1         0.1913385916E+01      0.4686455537E+01
          0                 5           2             4    7     1      -0.1380496257E-02       5    8    1        -0.7828246167E-01      0.1917560285E+00
          0                 6           1             4    7     1       0.1703474361E-04       5    8    1         0.9930044362E-03      0.2432457990E-02

    ------------------------------------------------
       NWT REQUIRED            6 OUTER ITERATIONS 
       AND A TOTAL OF         11 INNER ITERATIONS.
    ------------------------------------------------

 NO OUTPUT CONTROL FOR STRESS PERIOD    9   TIME STEP   18
 
 SOLVING FOR HEAD 
                                                   Max.-Head-Change                         Max.-Flux-Residual
  Residual-Control   Outer-Iter.   Inner-Iter.     Column Row Layer    Maximum-Head-Change  Column Row Layer    Maximum-Flux-Residual          L2-NORM 
          0                 1           2             5    8     1       0.1292132019E+00       5    8    1         0.7017112495E+01      0.1752416607E+02
          0                 2           2             5    8     1      -0.1256866468E-01       5    8    1        -0.7016934226E+00      0.1754370033E+01
          0                 3           2             4    7     1      -0.6382745746E-02       4    7    1        -0.3426922693E+00      0.8278274101E+00
          0                 4           2             4    7     1       0.7311963680E-02       4    7    1         0.4033656676E+00      0.9868046690E+00
          0                 5           2             4    7     1      -0.2871857513E-03       4    7    1        -0.1628478318E-01      0.3984776836E-01
          0                 6           1             4    7     1       0.3543753327E-05       4    7    1         0.2065378826E-03      0.5056583942E-03

    ------------------------------------------------
       NWT REQUIRED            6 OUTER ITERATIONS 
       AND A TOTAL OF         11 INNER ITERATIONS.
    ------------------------------------------------

 NO OUTPUT CONTROL FOR STRESS PERIOD    9   TIME STEP   19
 
 SOLVING FOR HEAD 
                                                   Max.-Head-Change                         Max.-Flux-Residual
  Residual-Control   Outer-Iter.   Inner-Iter.     Column Row Layer    Maximum-Head-Change  Column Row Layer    Maximum-Flux-Residual          L2-NORM 
          0                 1           2             5    6     1       0.1238852814E+00       5    8    1         0.6714583522E+01      0.1696529050E+02
          0                 2           2             4    7     1      -0.1540955709E+00       5    8    1        -0.8411628179E+01      0.2049881061E+02
          0                 3           2             4    7     1       0.5598295766E-01       5    8    1         0.3098176841E+01      0.7580127171E+01
          0                 4           2             4    7     1      -0.2227631814E-02       5    6    1        -0.1266901004E+00      0.3100070286E+00
          0                 5           1             4    7     1       0.2746763766E-04       5    6    1         0.1603913532E-02      0.3932481724E-02

    ------------------------------------------------
       NWT REQUIRED            5 OUTER ITERATIONS 
       AND A TOTAL OF          9 INNER ITERATIONS.
    ------------------------------------------------

 NO OUTPUT CONTROL FOR STRESS PERIOD    9   TIME STEP   20
 
 SOLVING FOR HEAD 
                                                   Max.-Head-Change                         Max.-Flux-Residual
  Residual-Control   Outer-Iter.   Inner-Iter.     Column Row Layer    Maximum-Head-Change  Column Row Layer    Maximum-Flux-Residual          L2-NORM 
          0                 1           2             5    6     1       0.1216879741E+00       5    8    1         0.6586445934E+01      0.1673534525E+02
          0                 2           2             5    7     1      -0.1029024873E+00       5    8    1        -0.5634467423E+01      0.1372496376E+02
          0                 3           2             4    7     1      -0.1685014114E+00       4    7    1        -0.9042338572E+01      0.2213547511E+02
          0                 4           2             4    7     1       0.1147578017E-01       4    7    1         0.6330556694E+00      0.1549887782E+01
          0                 5           2             4    7     1      -0.4567410816E-03       4    7    1        -0.2589870190E-01      0.6341729539E-01
          0                 6           1             4    7     1       0.5635995444E-05       4    7    1         0.3284661366E-03      0.8044750266E-03

    ------------------------------------------------
       NWT REQUIRED            6 OUTER ITERATIONS 
       AND A TOTAL OF         11 INNER ITERATIONS.
    ------------------------------------------------

 NO OUTPUT CONTROL FOR STRESS PERIOD    9   TIME STEP   21
 
 SOLVING FOR HEAD 
                                                   Max.-Head-Change                         Max.-Flux-Residual
  Residual-Control   Outer-Iter.   Inner-Iter.     Column Row Layer    Maximum-Head-Change  Column Row Layer    Maximum-Flux-Residual          L2-NORM 
          0                 1           2             5    6     1       0.1243120282E+00       5    8    1         0.6739679705E+01      0.1703685956E+02
          0                 2           2             5    6     1      -0.1348690113E-01       5    8    1        -0.7506353682E+00      0.1875631019E+01
          0                 3           2             4    7     1      -0.2618783149E-01       4    7    1        -0.1405430071E+01      0.3447251524E+01
          0                 4           2             4    7     1       0.2737463887E-01       4    7    1         0.1510071758E+01      0.3697918963E+01
          0                 5           2             4   13     1      -0.1237974467E-03       4   13    1        -0.7283878995E-02      0.1337061099E-01
          0                 6           2             4    7     1      -0.3048315544E-03       5    6    1        -0.1728397619E-01      0.4523779142E-01
          0                 7           2             4    7     1      -0.5166676525E-02       4    7    1        -0.2929462979E+00      0.7226041426E+00
          0                 8           2             4    7     1       0.5321542531E-02       5    8    1         0.3101155694E+00      0.7598584774E+00
          0                 9           2             4    7     1      -0.1206416421E-01       5    8    1        -0.7225158386E+00      0.1779737008E+01
          0                10           2             4    7     1      -0.1314534323E-03       4    7    1        -0.7871866595E-02      0.2059623980E-01
                                                   Max.-Head-Change                         Max.-Flux-Residual
  Residual-Control   Outer-Iter.   Inner-Iter.     Column Row Layer    Maximum-Head-Change  Column Row Layer    Maximum-Flux-Residual          L2-NORM 
          0                11           2             4    7     1       0.3621009764E-03       5    8    1         0.2228516496E-01      0.5458726604E-01
          0                12           1             4    7     1       0.2425787630E-04       4    7    1         0.1492850586E-02      0.3656527151E-02

    ------------------------------------------------
       NWT REQUIRED           12 OUTER ITERATIONS 
       AND A TOTAL OF         23 INNER ITERATIONS.
    ------------------------------------------------

 NO OUTPUT CONTROL FOR STRESS PERIOD    9   TIME STEP   22
 
 SOLVING FOR HEAD 
                                                   Max.-Head-Change                         Max.-Flux-Residual
  Residual-Control   Outer-Iter.   Inner-Iter.     Column Row Layer    Maximum-Head-Change  Column Row Layer    Maximum-Flux-Residual          L2-NORM 
          0                 1           2             5    6     1       0.1198247230E+00       5    6    1         0.6481366117E+01      0.1655451120E+02
          0                 2           2             5    7     1      -0.6714167253E-01       5    6    1        -0.3687770448E+01      0.8992488316E+01
          0                 3           2             5    7     1       0.4068439088E-02       5    6    1         0.2300731125E+00      0.5630838891E+00
          0                 4           2             4    7     1      -0.1037641041E-02       5    6    1        -0.5915627973E-01      0.1446764511E+00
          0                 5           2             4    7     1      -0.1412857733E-02       4    7    1        -0.8010932000E-01      0.1962209724E+00
          0                 6           2             4    7     1      -0.8834795876E-02       5    8    1        -0.5009305692E+00      0.1227022926E+01
          0                 7           2             4    7     1      -0.1257943377E-02       5    8    1        -0.7133075310E-01      0.1747165532E+00
          0                 8           2             4    7     1      -0.1274884282E-01       5    8    1        -0.7228406981E+00      0.1770590000E+01
          0                 9           2             4    7     1      -0.1249202024E-02       5    8    1        -0.7083665710E-01      0.1735035337E+00
          0                10           2             4    7     1      -0.1405828010E-01       5    8    1        -0.7970677944E+00      0.1952408656E+01
                                                   Max.-Head-Change                         Max.-Flux-Residual
  Residual-Control   Outer-Iter.   Inner-Iter.     Column Row Layer    Maximum-Head-Change  Column Row Layer    Maximum-Flux-Residual          L2-NORM 
          0                11           2             4    7     1       0.1741641594E-03       4    7    1         0.1014987330E-01      0.2486292575E-01
          0                12           1             4    7     1       0.2551336091E-05       5    8    1         0.1489365509E-03      0.3651720291E-03

    ------------------------------------------------
       NWT REQUIRED           12 OUTER ITERATIONS 
       AND A TOTAL OF         23 INNER ITERATIONS.
    ------------------------------------------------

 NO OUTPUT CONTROL FOR STRESS PERIOD    9   TIME STEP   23
 
 SOLVING FOR HEAD 
                                                   Max.-Head-Change                         Max.-Flux-Residual
  Residual-Control   Outer-Iter.   Inner-Iter.     Column Row Layer    Maximum-Head-Change  Column Row Layer    Maximum-Flux-Residual          L2-NORM 
          0                 1           2             5    6     1       0.1179631159E+00       5    6    1         0.6378443785E+01      0.1635734611E+02
          0                 2           2             5    7     1      -0.6526501671E-01       5    6    1        -0.3580175124E+01      0.8738497931E+01
          0                 3           2             5    6     1       0.2078974102E-02       5    6    1         0.1179737149E+00      0.2926295011E+00
          0                 4           2             4    7     1       0.8349321805E-03       4    7    1         0.4606002966E-01      0.1124605483E+00
          0                 5           2             4    7     1      -0.1074448413E-01       4    7    1        -0.6092136022E+00      0.1492245510E+01
          0                 6           2             4    7     1      -0.1314623052E-01       4    7    1        -0.7453844923E+00      0.1825802841E+01
          0                 7           2             4    7     1      -0.1250933694E-02       4    7    1        -0.7092586745E-01      0.1737226906E+00
          0                 8           2             4    7     1      -0.1414484687E-02       4    7    1        -0.8019893750E-01      0.1964452619E+00
          0                 9           1             4    7     1      -0.1792071497E-04       4    7    1        -0.1015982078E-02      0.2488935513E-02

    ------------------------------------------------
       NWT REQUIRED            9 OUTER ITERATIONS 
       AND A TOTAL OF         17 INNER ITERATIONS.
    ------------------------------------------------

 NO OUTPUT CONTROL FOR STRESS PERIOD    9   TIME STEP   24
 
 SOLVING FOR HEAD 
                                                   Max.-Head-Change                         Max.-Flux-Residual
  Residual-Control   Outer-Iter.   Inner-Iter.     Column Row Layer    Maximum-Head-Change  Column Row Layer    Maximum-Flux-Residual          L2-NORM 
          0                 1           2             5    6     1       0.1157873741E+00       5    6    1         0.6258343485E+01      0.1612417813E+02
          0                 2           2             5    7     1      -0.7021477850E-01       5    6    1        -0.3842102449E+01      0.9388837197E+01
          0                 3           2             4    7     1      -0.5095068850E+00       4    7    1        -0.2734133734E+02      0.6696281188E+02
          0                 4           2             4    7     1       0.3469894121E-01       4    7    1         0.1914102473E+01      0.4688480592E+01
          0                 5           2             4    7     1      -0.1381037736E-02       5    8    1        -0.7831878315E-01      0.1918387706E+00
          0                 6           1             4    7     1       0.1704142535E-04       5    8    1         0.9934645059E-03      0.2433504840E-02

    ------------------------------------------------
       NWT REQUIRED            6 OUTER ITERATIONS 
       AND A TOTAL OF         11 INNER ITERATIONS.
    ------------------------------------------------

 NO OUTPUT CONTROL FOR STRESS PERIOD    9   TIME STEP   25
 
 SOLVING FOR HEAD 
                                                   Max.-Head-Change                         Max.-Flux-Residual
  Residual-Control   Outer-Iter.   Inner-Iter.     Column Row Layer    Maximum-Head-Change  Column Row Layer    Maximum-Flux-Residual          L2-NORM 
          0                 1           2             5    8     1       0.1273574864E+00       5    8    1         0.6909248451E+01      0.1737685522E+02
          0                 2           2             5    8     1      -0.1238816871E-01       5    8    1        -0.6909080082E+00      0.1739680515E+01
          0                 3           2             4    7     1      -0.6246057430E-02       4    7    1        -0.3352972072E+00      0.8131213777E+00
          0                 4           2             4    7     1       0.7196793745E-02       4    7    1         0.3970026055E+00      0.9714694004E+00
          0                 5           2             4    7     1      -0.2825766464E-03       4    7    1        -0.1602303028E-01      0.3921667183E-01
          0                 6           1             4    7     1       0.3486878947E-05       4    7    1         0.2032180769E-03      0.4975464853E-03

    ------------------------------------------------
       NWT REQUIRED            6 OUTER ITERATIONS 
       AND A TOTAL OF         11 INNER ITERATIONS.
    ------------------------------------------------

 NO OUTPUT CONTROL FOR STRESS PERIOD    9   TIME STEP   26
 
 SOLVING FOR HEAD 
                                                   Max.-Head-Change                         Max.-Flux-Residual
  Residual-Control   Outer-Iter.   Inner-Iter.     Column Row Layer    Maximum-Head-Change  Column Row Layer    Maximum-Flux-Residual          L2-NORM 
          0                 1           2             5    6     1       0.1221935628E+00       5    8    1         0.6618138891E+01      0.1684334872E+02
          0                 2           2             4    7     1      -0.1545896304E+00       5    8    1        -0.8407826832E+01      0.2051537909E+02
          0                 3           2             4    7     1       0.5618318558E-01       5    8    1         0.3107063152E+01      0.7603778067E+01
          0                 4           2             4    7     1      -0.2235599321E-02       5    6    1        -0.1270522437E+00      0.3109735884E+00
          0                 5           1             4    7     1       0.2756587993E-04       5    6    1         0.1608444696E-02      0.3944925923E-02

    ------------------------------------------------
       NWT REQUIRED            5 OUTER ITERATIONS 
       AND A TOTAL OF          9 INNER ITERATIONS.
    ------------------------------------------------

 NO OUTPUT CONTROL FOR STRESS PERIOD    9   TIME STEP   27
 
 SOLVING FOR HEAD 
                                                   Max.-Head-Change                         Max.-Flux-Residual
  Residual-Control   Outer-Iter.   Inner-Iter.     Column Row Layer    Maximum-Head-Change  Column Row Layer    Maximum-Flux-Residual          L2-NORM 
          0                 1           2             5    6     1       0.1201748638E+00       5    8    1         0.6500460069E+01      0.1663246370E+02
          0                 2           2             4    7     1      -0.1030099548E+00       5    8    1        -0.5627311174E+01      0.1373110376E+02
          0                 3           2             4    7     1      -0.1684860309E+00       4    7    1        -0.9041334124E+01      0.2213620464E+02
          0                 4           2             4    7     1       0.1147473303E-01       4    7    1         0.6329852754E+00      0.1549938281E+01
          0                 5           2             4    7     1      -0.4566994037E-03       4    7    1        -0.2589581813E-01      0.6341928533E-01
          0                 6           1             4    7     1       0.5635481403E-05       4    7    1         0.3284295299E-03      0.8044972691E-03

    ------------------------------------------------
       NWT REQUIRED            6 OUTER ITERATIONS 
       AND A TOTAL OF         11 INNER ITERATIONS.
    ------------------------------------------------

 NO OUTPUT CONTROL FOR STRESS PERIOD    9   TIME STEP   28
 
 SOLVING FOR HEAD 
                                                   Max.-Head-Change                         Max.-Flux-Residual
  Residual-Control   Outer-Iter.   Inner-Iter.     Column Row Layer    Maximum-Head-Change  Column Row Layer    Maximum-Flux-Residual          L2-NORM 
          0                 1           2             5    6     1       0.1229663518E+00       5    8    1         0.6663461506E+01      0.1694480782E+02
          0                 2           2             5    6     1      -0.1335700970E-01       5    8    1        -0.7430678721E+00      0.1867927240E+01
          0                 3           2             4    7     1      -0.2615743634E-01       4    7    1        -0.1403733800E+01      0.3446073659E+01
          0                 4           2             4    7     1       0.2737028428E-01       4    7    1         0.1509806929E+01      0.3697479534E+01
          0                 5           2             4   13     1      -0.1236242097E-03       4   13    1        -0.7273686163E-02      0.1337354396E-01
          0                 6           2             4    7     1      -0.3038720985E-03       5    6    1        -0.1722926416E-01      0.4510059734E-01
          0                 7           2             4    7     1      -0.5129426683E-02       4    7    1        -0.2908301475E+00      0.7173930292E+00
          0                 8           2             4    7     1      -0.3527132783E-02       4    7    1        -0.1999804147E+00      0.5078354753E+00
          0                 9           2             4    7     1       0.8590489990E-02       5    8    1         0.5005996430E+00      0.1226232572E+01
          0                10           2             4    7     1       0.1477743422E-03       4   13    1        -0.8624798636E-02      0.2609776857E-01
                                                   Max.-Head-Change                         Max.-Flux-Residual
  Residual-Control   Outer-Iter.   Inner-Iter.     Column Row Layer    Maximum-Head-Change  Column Row Layer    Maximum-Flux-Residual          L2-NORM 
          0                11           2             4   13     1      -0.1448533742E-03       4   13    1        -0.8512649575E-02      0.1560997854E-01
          0                12           2             4   13     1      -0.1577352319E-03       4   13    1        -0.9269000170E-02      0.2165113823E-01
          0                13           1             4   13     1      -0.5446994414E-04       4   13    1        -0.3200601025E-02      0.5846341566E-02

    ------------------------------------------------
       NWT REQUIRED           13 OUTER ITERATIONS 
       AND A TOTAL OF         25 INNER ITERATIONS.
    ------------------------------------------------

 NO OUTPUT CONTROL FOR STRESS PERIOD    9   TIME STEP   29
 
 SOLVING FOR HEAD 
                                                   Max.-Head-Change                         Max.-Flux-Residual
  Residual-Control   Outer-Iter.   Inner-Iter.     Column Row Layer    Maximum-Head-Change  Column Row Layer    Maximum-Flux-Residual          L2-NORM 
          0                 1           2             5    6     1       0.1182964804E+00       5    6    1         0.6392689159E+01      0.1644516723E+02
          0                 2           2             5    7     1      -0.7502271510E-01       5    6    1        -0.4103624469E+01      0.1002565736E+02
          0                 3           2             4    7     1      -0.4959092041E+00       4    7    1        -0.2661135419E+02      0.6517515193E+02
          0                 4           2             4    7     1       0.3377296961E-01       4    7    1         0.1863002362E+01      0.4563324815E+01
          0                 5           2             4    7     1      -0.1344183354E-02       5    8    1        -0.7622784297E-01      0.1867177412E+00
          0                 6           1             4    7     1       0.1658665782E-04       5    8    1         0.9669412757E-03      0.2368543820E-02

    ------------------------------------------------
       NWT REQUIRED            6 OUTER ITERATIONS 
       AND A TOTAL OF         11 INNER ITERATIONS.
    ------------------------------------------------

 NO OUTPUT CONTROL FOR STRESS PERIOD    9   TIME STEP   30



 STREAM LISTING     PERIOD      9   STEP       30

 LAYER ROW COL. STREAM  RCH.  FLOW INTO     FLOW TO   FLOW OUT OF   OVRLND.     DIRECT     STREAM       STREAM     STREAM     STREAM   STREAMBED  STREAMBED
                SEG.NO.  NO.  STRM. RCH.    AQUIFER    STRM. RCH.    RUNOFF     PRECIP       ET          HEAD       DEPTH      WIDTH   CONDCTNC.   GRADIENT

   1    1    1     1     1    2.2875E+01  2.3514E-01   2.2640E+01  0.000E+00  0.000E+00  0.000E+00  1.09419E+03  1.146E+00  1.260E+01  5.672E-02  1.382E+00
   1    2    2     1     2    2.2640E+01  3.6351E-01   2.2276E+01  0.000E+00  0.000E+00  0.000E+00  1.08920E+03  1.141E+00  1.254E+01  8.778E-02  1.380E+00
   1    3    3     1     3    2.2276E+01  3.0939E-01   2.1967E+01  0.000E+00  0.000E+00  0.000E+00  1.08355E+03  1.136E+00  1.247E+01  7.481E-02  1.379E+00
   1    3    4     1     4    2.1967E+01  2.8439E-01   2.1682E+01  0.000E+00  0.000E+00  0.000E+00  1.07854E+03  1.131E+00  1.240E+01  6.885E-02  1.377E+00
   1    4    5     2     1    1.9682E+01  3.1521E-01   1.9367E+01  0.000E+00  0.000E+00  0.000E+00  1.07298E+03  1.041E+00  1.200E+01  7.800E-02  1.347E+00
   1    5    6     2     2    1.9367E+01  2.4193E-01   1.9125E+01  0.000E+00  0.000E+00  0.000E+00  1.06754E+03  1.032E+00  1.200E+01  6.000E-02  1.344E+00
   1    6    6     2     3    1.9125E+01  2.4146E-01   1.8884E+01  0.000E+00  0.000E+00  0.000E+00  1.06282E+03  1.024E+00  1.200E+01  6.000E-02  1.341E+00
   1    7    6     2     4    1.8884E+01  2.4099E-01   1.8643E+01  0.000E+00  0.000E+00  0.000E+00  1.05809E+03  1.017E+00  1.200E+01  6.000E-02  1.339E+00
   1    8    6     2     5    1.8643E+01  2.4052E-01   1.8402E+01  0.000E+00  0.000E+00  0.000E+00  1.05337E+03  1.009E+00  1.200E+01  6.000E-02  1.336E+00
   1    3    5     3     1    2.0000E+00  2.8252E-01   1.7175E+00  0.000E+00  0.000E+00  0.000E+00  1.07555E+03  1.909E+00  9.636E+00  7.227E-02  1.955E+00
   1    3    6     3     2    1.7175E+00  2.4905E-01   1.4684E+00  0.000E+00  0.000E+00  0.000E+00  1.07264E+03  1.727E+00  8.909E+00  6.682E-02  1.864E+00
   1    3    7     3     3    1.4684E+00  1.9718E-01   1.2712E+00  0.000E+00  0.000E+00  0.000E+00  1.06987E+03  1.555E+00  8.218E+00  5.547E-02  1.777E+00
   1    4    8     3     4    1.2712E+00  2.2567E-01   1.0456E+00  0.000E+00  0.000E+00  0.000E+00  1.06682E+03  1.364E+00  7.455E+00  6.709E-02  1.682E+00
   1    5    8     3     5    1.0456E+00  1.5790E-01   8.8768E-01  0.000E+00  0.000E+00  0.000E+00  1.06362E+03  1.164E+00  6.655E+00  4.991E-02  1.582E+00
   1    6    8     3     6    8.8768E-01  5.5980E-02   8.3170E-01  0.000E+00  0.000E+00  0.000E+00  1.06158E+03  1.036E+00  6.145E+00  1.844E-02  1.518E+00
   1    5   10     4     1    1.0000E+01  9.0919E-02   9.9091E+00  0.000E+00  0.000E+00  0.000E+00  1.07836E+03  6.368E-01  1.000E+01  2.500E-02  1.212E+00
   1    5    9     4     2    9.9091E+00  1.8158E-01   9.7275E+00  0.000E+00  0.000E+00  0.000E+00  1.07154E+03  6.315E-01  1.000E+01  5.000E-02  1.211E+00
   1    6    8     4     3    9.7275E+00  1.2689E-01   9.6006E+00  0.000E+00  0.000E+00  0.000E+00  1.06381E+03  6.256E-01  1.000E+01  3.500E-02  1.209E+00
   1    6    8     5     1    1.0432E+01  2.2686E-01   1.0205E+01  0.000E+00  0.000E+00  0.000E+00  1.05868E+03  6.790E-01  1.542E+01  6.166E-02  1.226E+00
   1    7    7     5     2    1.0205E+01  2.7894E-01   9.9265E+00  0.000E+00  0.000E+00  0.000E+00  1.05417E+03  6.732E-01  1.519E+01  7.594E-02  1.224E+00
   1    8    7     5     3    9.9265E+00  1.9221E-01   9.7343E+00  0.000E+00  0.000E+00  0.000E+00  1.04992E+03  6.676E-01  1.497E+01  5.241E-02  1.223E+00
   1    8    6     5     4    9.7343E+00  1.3577E-01   9.5985E+00  0.000E+00  0.000E+00  0.000E+00  1.04691E+03  6.637E-01  1.482E+01  3.706E-02  1.221E+00
   1    9    6     6     1    9.5985E+00  2.2097E-01   9.3776E+00  0.000E+00  0.000E+00  0.000E+00  1.04341E+03  6.828E-01  1.200E+01  6.000E-02  1.228E+00
   1   10    7     6     2    9.3776E+00  2.2039E-01   9.1572E+00  0.000E+00  0.000E+00  0.000E+00  1.03885E+03  6.732E-01  1.200E+01  6.000E-02  1.224E+00
   1   11    7     6     3    9.1572E+00  2.1981E-01   8.9374E+00  0.000E+00  0.000E+00  0.000E+00  1.03430E+03  6.636E-01  1.200E+01  6.000E-02  1.221E+00
   1   12    7     6     4    8.9374E+00  2.1923E-01   8.7181E+00  0.000E+00  0.000E+00  0.000E+00  1.02974E+03  6.539E-01  1.200E+01  6.000E-02  1.218E+00
   1   13    7     6     5    8.7181E+00 -6.5324E-02   8.7835E+00  0.000E+00  0.000E+00  0.000E+00  1.02656E+03  6.504E-01  1.200E+01  2.400E-01 -9.073E-02
   1   14    9     7     1    1.5000E+02  1.3685E+00   1.4863E+02  0.000E+00  0.000E+00  0.000E+00  1.03987E+03  2.288E+00  5.529E+01  5.593E-01  8.156E-01
   1   13    8     7     2    1.4863E+02  1.9180E+00   1.4671E+02  0.000E+00  0.000E+00  0.000E+00  1.03478E+03  2.279E+00  5.526E+01  6.148E-01  1.040E+00
   1   13    7     7     3    1.4671E+02  1.5955E+00   1.4512E+02  0.000E+00  0.000E+00  0.000E+00  1.02969E+03  2.270E+00  5.521E+01  5.584E-01  9.524E-01
   1   13    6     8     1    1.5390E+02  9.4434E-01   1.5296E+02  0.000E+00  0.000E+00  0.000E+00  1.02472E+03  2.841E+00  4.119E+01  4.198E-01  7.499E-01
   1   13    5     8     2    1.5296E+02  2.0671E-01   1.5275E+02  0.000E+00  0.000E+00  0.000E+00  1.01846E+03  2.837E+00  4.113E+01  4.192E-01  1.644E-01
   1   13    4     8     3    1.5275E+02 -2.3412E+00   1.5509E+02  0.000E+00  0.000E+00  0.000E+00  1.01222E+03  2.844E+00  4.124E+01  4.203E+00 -1.857E-01
   1   13    3     8     4    1.5509E+02 -3.6067E+00   1.5870E+02  0.000E+00  0.000E+00  0.000E+00  1.00599E+03  2.865E+00  4.154E+01  4.233E+00 -2.840E-01
   1   13    2     8     5    1.5870E+02 -2.5959E+00   1.6129E+02  0.000E+00  0.000E+00  0.000E+00  9.99761E+02  2.886E+00  4.184E+01  4.264E+00 -2.029E-01
   1   13    1     8     6    1.6129E+02 -1.9941E+00   1.6329E+02  0.000E+00  0.000E+00  0.000E+00  9.94776E+02  2.901E+00  4.207E+01  2.572E+00 -2.584E-01
   1    8    6     9     1    1.8402E+01  0.0000E+00   1.8402E+01  0.000E+00  0.000E+00  0.000E+00  1.08202E+03  3.267E+00  4.000E+00  0.000E+00  2.089E+00
   1    8    5     9     2    1.8402E+01  0.0000E+00   1.8402E+01  0.000E+00  0.000E+00  0.000E+00  1.08152E+03  3.267E+00  4.000E+00  0.000E+00  2.089E+00





UNSATURATED ZONE PACKAGE VOLUMETRIC BUDGET FOR  TIME STEP    30 STRESS PERIOD    9
  ------------------------------------------------------------------------------



     CUMULATIVE VOLUMES      L**3       RATES FOR THIS TIME STEP      L**3/T
     ------------------                 ------------------------

           IN:                                      IN:
           ---                                      ---
        INFILTRATION =   635349544.9122          INFILTRATION =         201.3919

          OUT:                                     OUT:
          ----                                     ----
              UZF ET =   394288577.7609                UZF ET =          49.5675
        UZF RECHARGE =       73224.0000          UZF RECHARGE =       0.0000E+00

            IN - OUT =   240987743.1512              IN - OUT =         151.8244

          STORAGE:                                 STORAGE:
          --------                                 --------
      STORAGE CHANGE =   240988045.4592        STORAGE CHANGE =         151.8244

 PERCENT DISCREPANCY IS DIFFERENCE BETWEEN IN-OUT MINUS CHANGE IN STORAGE
 DIVIDED BY THE AVERAGE OF IN AND OUT TIMES 100

 PERCENT DISCREPANCY =          -0.00     PERCENT DISCREPANCY =           0.00






1
  VOLUMETRIC BUDGET FOR AGRICULTURAL FIELDS AT  END OF TIME STEP   30, STRESS PERIOD   9
  ------------------------------------------------------------------------------

     CUMULATIVE VOLUMES      L**3       RATES FOR THIS TIME STEP      L**3/T
     ------------------                 ------------------------

           IN:                                      IN:
           ---                                      ---
               AG WELLS  =   429841792.0000                 AG WELLS  =         182.1417
      DIVERSION SEGMENTS =   187659728.0000        DIVERSION SEGMENTS =          18.4023
       IRRIGATION PONDS  =           0.0000         IRRIGATION PONDS  =           0.0000
           GW IRRIGATION =           0.0000             GW IRRIGATION =           0.0000
           SW IRRIGATION =           0.0000             SW IRRIGATION =           0.0000
        SYSTEM LOSSES GW =           0.0000          SYSTEM LOSSES GW =           0.0000
        SYSTEM LOSSES SW =           0.0000          SYSTEM LOSSES SW =           0.0000

                TOTAL IN =   617501504.0000                  TOTAL IN =         200.5440

          OUT:                                     OUT:
          ----                                     ----
               AG WELLS  =           0.0000                 AG WELLS  =           0.0000
      DIVERSION SEGMENTS =           0.0000        DIVERSION SEGMENTS =           0.0000
       IRRIGATION PONDS  =           0.0000         IRRIGATION PONDS  =           0.0000
           GW IRRIGATION =   429841792.0000             GW IRRIGATION =         182.1417
           SW IRRIGATION =   187663392.0000             SW IRRIGATION =          18.4027
        SYSTEM LOSSES GW =           0.0000          SYSTEM LOSSES GW =           0.0000
        SYSTEM LOSSES SW =           0.0000          SYSTEM LOSSES SW =           0.0000

               TOTAL OUT =   617505152.0000                 TOTAL OUT =         200.5444

                IN - OUT =       -3648.0000                  IN - OUT =      -3.6621E-04

     PERCENT DISCREPANCY =          -0.00         PERCENT DISCREPANCY =          -0.00



1
  VOLUMETRIC BUDGET FOR ENTIRE MODEL AT END OF TIME STEP   30, STRESS PERIOD   9
  ------------------------------------------------------------------------------

     CUMULATIVE VOLUMES      L**3       RATES FOR THIS TIME STEP      L**3/T
     ------------------                 ------------------------

           IN:                                      IN:
           ---                                      ---
             STORAGE     =   494743840.0000               STORAGE     =         181.4008
       CONSTANT HEAD     =           0.0000         CONSTANT HEAD     =           0.0000
     HEAD DEP BOUNDS     =     6082177.5000       HEAD DEP BOUNDS     =           0.2880
      STREAM LEAKAGE     =   250531456.0000        STREAM LEAKAGE     =          11.7874
        UZF RECHARGE     =       73223.9531          UZF RECHARGE     =           0.0000
               GW ET     =           0.0000                 GW ET     =           0.0000
     SURFACE LEAKAGE     =           0.0000       SURFACE LEAKAGE     =           0.0000
           AG WELLS      =           0.0000             AG WELLS      =           0.0000

                TOTAL IN =   751430656.0000                  TOTAL IN =         193.4762

          OUT:                                     OUT:
          ----                                     ----
             STORAGE     =    96810160.0000               STORAGE     =           0.4442
       CONSTANT HEAD     =           0.0000         CONSTANT HEAD     =           0.0000
     HEAD DEP BOUNDS     =     6089392.0000       HEAD DEP BOUNDS     =           0.2870
      STREAM LEAKAGE     =   218691872.0000        STREAM LEAKAGE     =          10.6032
        UZF RECHARGE     =           0.0000          UZF RECHARGE     =           0.0000
               GW ET     =           0.0000                 GW ET     =           0.0000
     SURFACE LEAKAGE     =           0.0000       SURFACE LEAKAGE     =           0.0000
           AG WELLS      =   429841792.0000             AG WELLS      =         182.1417

               TOTAL OUT =   751433216.0000                 TOTAL OUT =         193.4761

                IN - OUT =       -2560.0000                  IN - OUT =       9.1553E-05

     PERCENT DISCREPANCY =          -0.00         PERCENT DISCREPANCY =           0.00






         TIME SUMMARY AT END OF TIME STEP   30 IN STRESS PERIOD    9
                    SECONDS     MINUTES      HOURS       DAYS        YEARS
                    -----------------------------------------------------------
   TIME STEP LENGTH  87667.      1461.1      24.352      1.0147     2.77799E-03
 STRESS PERIOD TIME 2.63000E+06  43833.      730.56      30.440     8.33397E-02
         TOTAL TIME 2.11264E+07 3.52107E+05  5868.4      244.52     0.66945    
1
1
                            STRESS PERIOD NO.   10, LENGTH =   2630000.    
                            -----------------------------------------------

                              NUMBER OF TIME STEPS =    30

                               MULTIPLIER FOR DELT =     1.000

                            INITIAL TIME STEP SIZE =   87666.66    

 REUSING NON-PARAMETER GHB CELLS FROM LAST STRESS PERIOD

      2 GHB CELLS

 REUSING STREAM SEGMENT DATA FROM LAST STRESS PERIOD



            AREAL INFILTRATION RATE
 READING ON UNIT   19 WITH FORMAT: (FREE)              

            1           2           3           4           5           6           7           8           9          10
 ........................................................................................................................
   1   1.0000E-10  2.0000E-10   0.000       0.000       0.000       0.000       0.000       0.000       0.000       0.000    
   2   2.0000E-10  1.0000E-10  2.0000E-10   0.000       0.000      8.0000E-10  8.0000E-10  5.0000E-10   0.000       0.000    
   3    0.000      5.0000E-10  1.0000E-10  1.0000E-10  8.0000E-10  8.0000E-10  5.0000E-10  5.0000E-10   0.000       0.000    
   4   8.0000E-10  5.0000E-10  1.0000E-10  1.0000E-10  1.0000E-10  1.0000E-10  1.0000E-10  1.0000E-10  2.0000E-10   0.000    
   5   8.0000E-10  5.0000E-10  1.0000E-10  1.0000E-10  1.0000E-10  1.0000E-10  1.0000E-10  1.0000E-10  1.0000E-10  1.0000E-10
   6   8.0000E-10  5.0000E-10  5.0000E-10  2.0000E-10  2.0000E-10  1.0000E-10  1.0000E-10  1.0000E-10  1.0000E-10  5.0000E-10
   7   8.0000E-10  5.0000E-10  5.0000E-10  2.0000E-10  2.0000E-10  1.0000E-10  1.0000E-10  2.0000E-10  2.0000E-10   0.000    
   8    0.000      5.0000E-10  5.0000E-10  2.0000E-10  2.0000E-10  1.0000E-10  1.0000E-10  2.0000E-10  5.0000E-10   0.000    
   9    0.000      5.0000E-10  5.0000E-10  2.0000E-10  2.0000E-10  1.0000E-10  1.0000E-10  2.0000E-10  5.0000E-10   0.000    
  10    0.000      5.0000E-10  5.0000E-10  2.0000E-10  2.0000E-10  1.0000E-10  1.0000E-10  2.0000E-10  5.0000E-10  8.0000E-10
  11    0.000      1.0000E-10  1.0000E-10  1.0000E-10  1.0000E-10  1.0000E-10  1.0000E-10  2.0000E-10  5.0000E-10   0.000    
  12   1.0000E-10  1.0000E-10  1.0000E-10  1.0000E-10  1.0000E-10  1.0000E-10  1.0000E-10  1.0000E-10  2.0000E-10   0.000    
  13   1.0000E-10  1.0000E-10  2.0000E-10  2.0000E-10  2.0000E-10  2.0000E-10  2.0000E-10  1.0000E-10  1.0000E-10   0.000    
  14    0.000      2.0000E-10  5.0000E-10  5.0000E-10  5.0000E-10  5.0000E-10  5.0000E-10  2.0000E-10  1.0000E-10   0.000    
  15    0.000       0.000      8.0000E-10  8.0000E-10  8.0000E-10  8.0000E-10   0.000       0.000       0.000       0.000    

                  ET RATE =  7.500000E-08

 USING ET EXTINCTION DEPTH FROM PREVIOUS STRESS PERIOD. CURRENT PERIOD IS:      10

 USING EXTINCTION WATER CONTENT FROM PREVIOUS STRESS PERIOD. CURRENT PERIOD IS:      10

 USING AIR ENTRY PRESSURE FROM PREVIOUS STRESS PERIOD. CURRENT PERIOD IS:      10

 USING ROOT PRESSURE HEAD FROM PREVIOUS STRESS PERIOD. CURRENT PERIOD IS:      10

 USING ROOT ACTIVITY FROM PREVIOUS STRESS PERIOD. CURRENT PERIOD IS:      10

 PROCESSING AG STRESS PERIOD DATA

 READING AG STRESS PERIOD DATA

 READING IRRIGATION SEGMENT

 READING IRRIGATION WELL

 READING SUPPLEMENTAL WELL

 NO IRRPOND OR REUSING IRRPOND DATA FROM LAST STRESS PERIOD

 END PROCESSING AG STRESS PERIOD DATA OPTIONS
 
 SOLVING FOR HEAD 
                                                   Max.-Head-Change                         Max.-Flux-Residual
  Residual-Control   Outer-Iter.   Inner-Iter.     Column Row Layer    Maximum-Head-Change  Column Row Layer    Maximum-Flux-Residual          L2-NORM 
          0                 1           2             5    8     1       0.1297310507E+00       5    8    1         0.7036408590E+01      0.1765302260E+02
          0                 2           2             5    8     1      -0.1261904536E-01       5    8    1        -0.7036236400E+00      0.1765247585E+01
          0                 3           2             5    8     1       0.8593126349E-03       5    8    1         0.4925383899E-01      0.1235675040E+00
          0                 4           1             5    8     1      -0.3419284285E-04       5    8    1        -0.2014484069E-02      0.5053901287E-02

    ------------------------------------------------
       NWT REQUIRED            4 OUTER ITERATIONS 
       AND A TOTAL OF          7 INNER ITERATIONS.
    ------------------------------------------------

 NO OUTPUT CONTROL FOR STRESS PERIOD   10   TIME STEP    1
 
 SOLVING FOR HEAD 
                                                   Max.-Head-Change                         Max.-Flux-Residual
  Residual-Control   Outer-Iter.   Inner-Iter.     Column Row Layer    Maximum-Head-Change  Column Row Layer    Maximum-Flux-Residual          L2-NORM 
          0                 1           2             5    8     1       0.1244015455E+00       5    8    1         0.6741471164E+01      0.1712752187E+02
          0                 2           2             5    8     1      -0.1210064590E-01       5    8    1        -0.6741310068E+00      0.1713443373E+01
          0                 3           2             5    8     1       0.8240113982E-03       5    8    1         0.4718934337E-01      0.1199385897E+00
          0                 4           1             5    8     1      -0.3278817411E-04       5    8    1        -0.1930046128E-02      0.4905297491E-02

    ------------------------------------------------
       NWT REQUIRED            4 OUTER ITERATIONS 
       AND A TOTAL OF          7 INNER ITERATIONS.
    ------------------------------------------------

 NO OUTPUT CONTROL FOR STRESS PERIOD   10   TIME STEP    2
 
 SOLVING FOR HEAD 
                                                   Max.-Head-Change                         Max.-Flux-Residual
  Residual-Control   Outer-Iter.   Inner-Iter.     Column Row Layer    Maximum-Head-Change  Column Row Layer    Maximum-Flux-Residual          L2-NORM 
          0                 1           2             5    6     1       0.1195899477E+00       5    8    1         0.6464529729E+01      0.1662106447E+02
          0                 2           2             5    6     1      -0.1163261948E-01       5    8    1        -0.6464379455E+00      0.1662040671E+01
          0                 3           2             5    6     1       0.7921404280E-03       5    8    1         0.4525081801E-01      0.1163409247E+00
          0                 4           1             5    6     1      -0.3151993434E-04       5    8    1        -0.1850760371E-02      0.4758121358E-02

    ------------------------------------------------
       NWT REQUIRED            4 OUTER ITERATIONS 
       AND A TOTAL OF          7 INNER ITERATIONS.
    ------------------------------------------------

 NO OUTPUT CONTROL FOR STRESS PERIOD   10   TIME STEP    3
 
 SOLVING FOR HEAD 
                                                   Max.-Head-Change                         Max.-Flux-Residual
  Residual-Control   Outer-Iter.   Inner-Iter.     Column Row Layer    Maximum-Head-Change  Column Row Layer    Maximum-Flux-Residual          L2-NORM 
          0                 1           2             5    6     1       0.1151124699E+00       5    6    1         0.6215156551E+01      0.1614141076E+02
          0                 2           2             5    7     1      -0.3394035331E-01       5    6    1        -0.1863242967E+01      0.4569609643E+01
          0                 3           2             4    7     1       0.2479842376E-01       5    6    1         0.1372168695E+01      0.3357622219E+01
          0                 4           2             4    7     1      -0.9867558755E-03       5    6    1        -0.5611626614E-01      0.1373165533E+00
          0                 5           1             4    7     1       0.1216712260E-04       5    6    1         0.7107810452E-03      0.1739979021E-02

    ------------------------------------------------
       NWT REQUIRED            5 OUTER ITERATIONS 
       AND A TOTAL OF          9 INNER ITERATIONS.
    ------------------------------------------------

 NO OUTPUT CONTROL FOR STRESS PERIOD   10   TIME STEP    4
 
 SOLVING FOR HEAD 
                                                   Max.-Head-Change                         Max.-Flux-Residual
  Residual-Control   Outer-Iter.   Inner-Iter.     Column Row Layer    Maximum-Head-Change  Column Row Layer    Maximum-Flux-Residual          L2-NORM 
          0                 1           2             5    7     1       0.1111913594E+00       5    6    1         0.5982467182E+01      0.1568712901E+02
          0                 2           2             5    7     1      -0.1985254929E-01       5    6    1        -0.1088185542E+01      0.2712003303E+01
          0                 3           2             4    7     1      -0.1404588913E-01       4    7    1        -0.7537036912E+00      0.1866959900E+01
          0                 4           2             4    7     1       0.2483265577E-01       4    7    1         0.1369808286E+01      0.3355321665E+01
          0                 5           2             4    7     1      -0.9883525250E-03       5    8    1        -0.5605007137E-01      0.1373145910E+00
          0                 6           1             4    7     1       0.1219585715E-04       5    8    1         0.7110779748E-03      0.1744946229E-02

    ------------------------------------------------
       NWT REQUIRED            6 OUTER ITERATIONS 
       AND A TOTAL OF         11 INNER ITERATIONS.
    ------------------------------------------------

 NO OUTPUT CONTROL FOR STRESS PERIOD   10   TIME STEP    5
 
 SOLVING FOR HEAD 
                                                   Max.-Head-Change                         Max.-Flux-Residual
  Residual-Control   Outer-Iter.   Inner-Iter.     Column Row Layer    Maximum-Head-Change  Column Row Layer    Maximum-Flux-Residual          L2-NORM 
          0                 1           2             5    7     1       0.1089496806E+00       5    7    1         0.5778621455E+01      0.1525581706E+02
          0                 2           2             5    7     1      -0.1059775880E-01       5    7    1        -0.5778572490E+00      0.1526367315E+01
          0                 3           2             4    7     1      -0.3410921828E-01       4    7    1        -0.1830301972E+01      0.4502819318E+01
          0                 4           2             4    7     1       0.3620882049E-01       4    7    1         0.1997333387E+01      0.4892584232E+01
          0                 5           2             4    7     1      -0.1441132156E-02       5    8    1        -0.8173455843E-01      0.2002156338E+00
          0                 6           1             4    7     1       0.1778296450E-04       5    8    1         0.1036917186E-02      0.2542399619E-02

    ------------------------------------------------
       NWT REQUIRED            6 OUTER ITERATIONS 
       AND A TOTAL OF         11 INNER ITERATIONS.
    ------------------------------------------------

 NO OUTPUT CONTROL FOR STRESS PERIOD   10   TIME STEP    6
 
 SOLVING FOR HEAD 
                                                   Max.-Head-Change                         Max.-Flux-Residual
  Residual-Control   Outer-Iter.   Inner-Iter.     Column Row Layer    Maximum-Head-Change  Column Row Layer    Maximum-Flux-Residual          L2-NORM 
          0                 1           2             5    7     1       0.1067476955E+00       5    7    1         0.5662126335E+01      0.1484579095E+02
          0                 2           2             5    7     1      -0.1038358244E-01       5    7    1        -0.5662088715E+00      0.1485389091E+01
          0                 3           2             4    7     1      -0.3411393667E-01       4    6    1        -0.1830614788E+01      0.4505201445E+01
          0                 4           2             4    7     1       0.3620924076E-01       5    8    1         0.1997390227E+01      0.4892765278E+01
          0                 5           2             4    7     1      -0.1441148881E-02       5    8    1        -0.8173908732E-01      0.2002229732E+00
          0                 6           1             4    7     1       0.1778317117E-04       5    8    1         0.1036974192E-02      0.2542473697E-02

    ------------------------------------------------
       NWT REQUIRED            6 OUTER ITERATIONS 
       AND A TOTAL OF         11 INNER ITERATIONS.
    ------------------------------------------------

 NO OUTPUT CONTROL FOR STRESS PERIOD   10   TIME STEP    7
 
 SOLVING FOR HEAD 
                                                   Max.-Head-Change                         Max.-Flux-Residual
  Residual-Control   Outer-Iter.   Inner-Iter.     Column Row Layer    Maximum-Head-Change  Column Row Layer    Maximum-Flux-Residual          L2-NORM 
          0                 1           2             4    7     1       0.1048953549E+00       5    7    1         0.5547689203E+01      0.1445553787E+02
          0                 2           2             4    7     1      -0.1020345241E-01       5    7    1        -0.5547661383E+00      0.1446387987E+01
          0                 3           2             4    7     1      -0.3411904888E-01       5    8    1        -0.1832038215E+01      0.4507497133E+01
          0                 4           2             4    7     1       0.3620968266E-01       5    8    1         0.1997495719E+01      0.4892940192E+01
          0                 5           2             4    7     1      -0.1441166466E-02       5    8    1        -0.8174336944E-01      0.2002300706E+00
          0                 6           1             4    7     1       0.1778338769E-04       5    8    1         0.1037028075E-02      0.2542559043E-02

    ------------------------------------------------
       NWT REQUIRED            6 OUTER ITERATIONS 
       AND A TOTAL OF         11 INNER ITERATIONS.
    ------------------------------------------------

 NO OUTPUT CONTROL FOR STRESS PERIOD   10   TIME STEP    8
 
 SOLVING FOR HEAD 
                                                   Max.-Head-Change                         Max.-Flux-Residual
  Residual-Control   Outer-Iter.   Inner-Iter.     Column Row Layer    Maximum-Head-Change  Column Row Layer    Maximum-Flux-Residual          L2-NORM 
          0                 1           2             4    7     1       0.1041054198E+00       4    7    1         0.5450023571E+01      0.1408370664E+02
          0                 2           2             4    7     1      -0.1012662849E-01       4    7    1        -0.5450032241E+00      0.1409229029E+01
          0                 3           2             4    7     1      -0.3412451820E-01       5    8    1        -0.1833390983E+01      0.4509709961E+01
          0                 4           2             4    7     1       0.3621014411E-01       5    8    1         0.1997595547E+01      0.4893109245E+01
          0                 5           2             4    7     1      -0.1441184830E-02       5    8    1        -0.8174742198E-01      0.2002369501E+00
          0                 6           1             4    7     1       0.1778361453E-04       5    8    1         0.1037079081E-02      0.2542651992E-02

    ------------------------------------------------
       NWT REQUIRED            6 OUTER ITERATIONS 
       AND A TOTAL OF         11 INNER ITERATIONS.
    ------------------------------------------------

 NO OUTPUT CONTROL FOR STRESS PERIOD   10   TIME STEP    9
 
 SOLVING FOR HEAD 
                                                   Max.-Head-Change                         Max.-Flux-Residual
  Residual-Control   Outer-Iter.   Inner-Iter.     Column Row Layer    Maximum-Head-Change  Column Row Layer    Maximum-Flux-Residual          L2-NORM 
          0                 1           2             4    7     1       0.1032669370E+00       4    7    1         0.5408973966E+01      0.1372903736E+02
          0                 2           2             4    7     1      -0.1004508050E-01       4    7    1        -0.5408991627E+00      0.1373786061E+01
          0                 3           2             4    7     1      -0.3413031140E-01       5    8    1        -0.1834667803E+01      0.4511843758E+01
          0                 4           2             4    7     1       0.3621062100E-01       5    8    1         0.1997689978E+01      0.4893272405E+01
          0                 5           2             4    7     1      -0.1441203808E-02       5    8    1        -0.8175125566E-01      0.2002435649E+00
          0                 6           1             4    7     1       0.1778384886E-04       5    8    1         0.1037127345E-02      0.2542701971E-02

    ------------------------------------------------
       NWT REQUIRED            6 OUTER ITERATIONS 
       AND A TOTAL OF         11 INNER ITERATIONS.
    ------------------------------------------------

 NO OUTPUT CONTROL FOR STRESS PERIOD   10   TIME STEP   10
 
 SOLVING FOR HEAD 
                                                   Max.-Head-Change                         Max.-Flux-Residual
  Residual-Control   Outer-Iter.   Inner-Iter.     Column Row Layer    Maximum-Head-Change  Column Row Layer    Maximum-Flux-Residual          L2-NORM 
          0                 1           2             4    7     1       0.1023847656E+00       4    7    1         0.5365414439E+01      0.1339039555E+02
          0                 2           2             4    7     1      -0.9959281274E-02       4    7    1        -0.5365440070E+00      0.1339945837E+01
          0                 3           2             4    7     1      -0.3413639798E-01       5    8    1        -0.1835873861E+01      0.4513902570E+01
          0                 4           2             4    7     1       0.3621111380E-01       5    8    1         0.1997779491E+01      0.4893429698E+01
          0                 5           2             4    7     1      -0.1441223420E-02       5    8    1        -0.8175488998E-01      0.2002498943E+00
          0                 6           1             4    7     1       0.1778409104E-04       5    8    1         0.1037173089E-02      0.2542792620E-02

    ------------------------------------------------
       NWT REQUIRED            6 OUTER ITERATIONS 
       AND A TOTAL OF         11 INNER ITERATIONS.
    ------------------------------------------------

 NO OUTPUT CONTROL FOR STRESS PERIOD   10   TIME STEP   11
 
 SOLVING FOR HEAD 
                                                   Max.-Head-Change                         Max.-Flux-Residual
  Residual-Control   Outer-Iter.   Inner-Iter.     Column Row Layer    Maximum-Head-Change  Column Row Layer    Maximum-Flux-Residual          L2-NORM 
          0                 1           2             4    7     1       0.1014632132E+00       4    7    1         0.5319582495E+01      0.1306673115E+02
          0                 2           2             4    7     1      -0.9869649944E-02       4    7    1        -0.5319615164E+00      0.1307603330E+01
          0                 3           2             4    7     1      -0.3414274448E-01       5    8    1        -0.1837013857E+01      0.4515889017E+01
          0                 4           2             4    7     1       0.3621161621E-01       5    8    1         0.1997864175E+01      0.4893581879E+01
          0                 5           2             4    7     1      -0.1441243414E-02       5    8    1        -0.8175832838E-01      0.2002560742E+00
          0                 6           1             4    7     1       0.1778433748E-04       5    8    1         0.1037216383E-02      0.2542866104E-02

    ------------------------------------------------
       NWT REQUIRED            6 OUTER ITERATIONS 
       AND A TOTAL OF         11 INNER ITERATIONS.
    ------------------------------------------------

 NO OUTPUT CONTROL FOR STRESS PERIOD   10   TIME STEP   12
 
 SOLVING FOR HEAD 
                                                   Max.-Head-Change                         Max.-Flux-Residual
  Residual-Control   Outer-Iter.   Inner-Iter.     Column Row Layer    Maximum-Head-Change  Column Row Layer    Maximum-Flux-Residual          L2-NORM 
          0                 1           2             4    7     1       0.1005064453E+00       4    7    1         0.5271708685E+01      0.1275706367E+02
          0                 2           2             4    7     1      -0.9776591833E-02       4    7    1        -0.5271747543E+00      0.1276660352E+01
          0                 3           2             4    7     1      -0.3414933173E-01       5    8    1        -0.1838092551E+01      0.4517808188E+01
          0                 4           2             4    7     1       0.3621213588E-01       5    8    1         0.1997944837E+01      0.4893729878E+01
          0                 5           2             4    7     1      -0.1441264095E-02       5    8    1        -0.8176160381E-01      0.2002620717E+00
          0                 6           1             4    7     1       0.1778459299E-04       5    8    1         0.1037257628E-02      0.2542937439E-02

    ------------------------------------------------
       NWT REQUIRED            6 OUTER ITERATIONS 
       AND A TOTAL OF         11 INNER ITERATIONS.
    ------------------------------------------------

 NO OUTPUT CONTROL FOR STRESS PERIOD   10   TIME STEP   13
 
 SOLVING FOR HEAD 
                                                   Max.-Head-Change                         Max.-Flux-Residual
  Residual-Control   Outer-Iter.   Inner-Iter.     Column Row Layer    Maximum-Head-Change  Column Row Layer    Maximum-Flux-Residual          L2-NORM 
          0                 1           2             4    7     1       0.9951811102E-01       4    7    1         0.5221994541E+01      0.1246051459E+02
          0                 2           2             4    7     1      -0.9680462006E-02       4    7    1        -0.5222038814E+00      0.1247029345E+01
          0                 3           2             4    7     1      -0.3415612405E-01       5    8    1        -0.1839113462E+01      0.4519660968E+01
          0                 4           2             4    7     1       0.3621265985E-01       5    8    1         0.1998021124E+01      0.4893872343E+01
          0                 5           2             4    7     1      -0.1441284948E-02       5    8    1        -0.8176470175E-01      0.2002678495E+00
          0                 6           1             4    7     1       0.1778485017E-04       5    8    1         0.1037296626E-02      0.2543020680E-02

    ------------------------------------------------
       NWT REQUIRED            6 OUTER ITERATIONS 
       AND A TOTAL OF         11 INNER ITERATIONS.
    ------------------------------------------------

 NO OUTPUT CONTROL FOR STRESS PERIOD   10   TIME STEP   14
 
 SOLVING FOR HEAD 
                                                   Max.-Head-Change                         Max.-Flux-Residual
  Residual-Control   Outer-Iter.   Inner-Iter.     Column Row Layer    Maximum-Head-Change  Column Row Layer    Maximum-Flux-Residual          L2-NORM 
          0                 1           2             4    7     1       0.9850188263E-01       4    7    1         0.5170643690E+01      0.1217625124E+02
          0                 2           2             4    7     1      -0.9581617791E-02       4    7    1        -0.5170692675E+00      0.1218626894E+01
          0                 3           2             4    7     1      -0.3416310561E-01       5    8    1        -0.1840080922E+01      0.4521452015E+01
          0                 4           2             4    7     1       0.3621319595E-01       5    8    1         0.1998093815E+01      0.4894010742E+01
          0                 5           2             4    7     1      -0.1441306284E-02       5    8    1        -0.8176765391E-01      0.2002734642E+00
          0                 6           1             4    7     1       0.1778511363E-04       5    8    1         0.1037333800E-02      0.2543073404E-02

    ------------------------------------------------
       NWT REQUIRED            6 OUTER ITERATIONS 
       AND A TOTAL OF         11 INNER ITERATIONS.
    ------------------------------------------------

 NO OUTPUT CONTROL FOR STRESS PERIOD   10   TIME STEP   15
 
 SOLVING FOR HEAD 
                                                   Max.-Head-Change                         Max.-Flux-Residual
  Residual-Control   Outer-Iter.   Inner-Iter.     Column Row Layer    Maximum-Head-Change  Column Row Layer    Maximum-Flux-Residual          L2-NORM 
          0                 1           2             4    7     1       0.9746119717E-01       4    7    1         0.5117846538E+01      0.1190352048E+02
          0                 2           2             4    7     1      -0.9480393614E-02       4    7    1        -0.5117899597E+00      0.1191377763E+01
          0                 3           2             4    7     1      -0.3417024880E-01       5    8    1        -0.1840998194E+01      0.4523183286E+01
          0                 4           2             4    7     1       0.3621373826E-01       5    8    1         0.1998162899E+01      0.4894144643E+01
          0                 5           2             4    7     1      -0.1441327866E-02       5    8    1        -0.8177045973E-01      0.2002788962E+00
          0                 6           1             4    7     1       0.1778537956E-04       5    8    1         0.1037369123E-02      0.2543126749E-02

    ------------------------------------------------
       NWT REQUIRED            6 OUTER ITERATIONS 
       AND A TOTAL OF         11 INNER ITERATIONS.
    ------------------------------------------------

 NO OUTPUT CONTROL FOR STRESS PERIOD   10   TIME STEP   16
 
 SOLVING FOR HEAD 
                                                   Max.-Head-Change                         Max.-Flux-Residual
  Residual-Control   Outer-Iter.   Inner-Iter.     Column Row Layer    Maximum-Head-Change  Column Row Layer    Maximum-Flux-Residual          L2-NORM 
          0                 1           2             4    7     1       0.9639926365E-01       4    7    1         0.5063781285E+01      0.1164162328E+02
          0                 2           2             4    7     1      -0.9377101715E-02       4    7    1        -0.5063837840E+00      0.1165211995E+01
          0                 3           2             4    7     1      -0.3417753425E-01       5    8    1        -0.1841868533E+01      0.4524857902E+01
          0                 4           2             4    7     1       0.3621428783E-01       5    8    1         0.1998228719E+01      0.4894274548E+01
          0                 5           2             4    7     1      -0.1441349738E-02       5    8    1        -0.8177313323E-01      0.2002841664E+00
          0                 6           1             4    7     1       0.1778564974E-04       5    8    1         0.1037402808E-02      0.2543208367E-02

    ------------------------------------------------
       NWT REQUIRED            6 OUTER ITERATIONS 
       AND A TOTAL OF         11 INNER ITERATIONS.
    ------------------------------------------------

 NO OUTPUT CONTROL FOR STRESS PERIOD   10   TIME STEP   17
 
 SOLVING FOR HEAD 
                                                   Max.-Head-Change                         Max.-Flux-Residual
  Residual-Control   Outer-Iter.   Inner-Iter.     Column Row Layer    Maximum-Head-Change  Column Row Layer    Maximum-Flux-Residual          L2-NORM 
          0                 1           2             4    7     1       0.9531880972E-01       4    7    1         0.5008599858E+01      0.1138989881E+02
          0                 2           2             4    7     1      -0.9272007498E-02       4    7    1        -0.5008659385E+00      0.1140060741E+01
          0                 3           2             4    7     1      -0.3418494358E-01       5    8    1        -0.1842695102E+01      0.4526478306E+01
          0                 4           2             4    7     1       0.3621484365E-01       5    8    1         0.1998291497E+01      0.4894400643E+01
          0                 5           2             4    7     1      -0.1441371859E-02       5    8    1        -0.8177568335E-01      0.2002892808E+00
          0                 6           1             4    7     1       0.1778592217E-04       5    8    1         0.1037434919E-02      0.2543255653E-02

    ------------------------------------------------
       NWT REQUIRED            6 OUTER ITERATIONS 
       AND A TOTAL OF         11 INNER ITERATIONS.
    ------------------------------------------------

 NO OUTPUT CONTROL FOR STRESS PERIOD   10   TIME STEP   18
 
 SOLVING FOR HEAD 
                                                   Max.-Head-Change                         Max.-Flux-Residual
  Residual-Control   Outer-Iter.   Inner-Iter.     Column Row Layer    Maximum-Head-Change  Column Row Layer    Maximum-Flux-Residual          L2-NORM 
          0                 1           2             4    7     1       0.9422290714E-01       4    7    1         0.4952472583E+01      0.1114778526E+02
          0                 2           2             4    7     1      -0.9165409840E-02       4    7    1        -0.4952534608E+00      0.1115876290E+01
          0                 3           2             4    7     1      -0.3419245613E-01       5    8    1        -0.1843480561E+01      0.4528046772E+01
          0                 4           2             4    7     1       0.3621540452E-01       5    8    1         0.1998351417E+01      0.4894523075E+01
          0                 5           2             4    7     1      -0.1441394181E-02       5    8    1        -0.8177811757E-01      0.2002942482E+00
          0                 6           1             4    7     1       0.1778619784E-04       5    8    1         0.1037465599E-02      0.2543321254E-02

    ------------------------------------------------
       NWT REQUIRED            6 OUTER ITERATIONS 
       AND A TOTAL OF         11 INNER ITERATIONS.
    ------------------------------------------------

 NO OUTPUT CONTROL FOR STRESS PERIOD   10   TIME STEP   19
 
 SOLVING FOR HEAD 
                                                   Max.-Head-Change                         Max.-Flux-Residual
  Residual-Control   Outer-Iter.   Inner-Iter.     Column Row Layer    Maximum-Head-Change  Column Row Layer    Maximum-Flux-Residual          L2-NORM 
          0                 1           2             4    7     1       0.9311401581E-01       4    7    1         0.4895537045E+01      0.1091469480E+02
          0                 2           2             4    7     1      -0.9057548092E-02       4    7    1        -0.4895601141E+00      0.1092591513E+01
          0                 3           2             4    7     1      -0.3420005310E-01       5    8    1        -0.1844227469E+01      0.4529565242E+01
          0                 4           2             4    7     1       0.3621596719E-01       5    8    1         0.1998408536E+01      0.4894641708E+01
          0                 5           2             4    7     1      -0.1441416575E-02       5    8    1        -0.8178043822E-01      0.2002990558E+00
          0                 6           1             4    7     1       0.1778647418E-04       5    8    1         0.1037494808E-02      0.2543377451E-02

    ------------------------------------------------
       NWT REQUIRED            6 OUTER ITERATIONS 
       AND A TOTAL OF         11 INNER ITERATIONS.
    ------------------------------------------------

 NO OUTPUT CONTROL FOR STRESS PERIOD   10   TIME STEP   20
 
 SOLVING FOR HEAD 
                                                   Max.-Head-Change                         Max.-Flux-Residual
  Residual-Control   Outer-Iter.   Inner-Iter.     Column Row Layer    Maximum-Head-Change  Column Row Layer    Maximum-Flux-Residual          L2-NORM 
          0                 1           2             4    7     1       0.9199429040E-01       4    7    1         0.4837913550E+01      0.1069012393E+02
          0                 2           2             4    7     1      -0.8948631904E-02       4    7    1        -0.4837979330E+00      0.1070158711E+01
          0                 3           2             4    7     1      -0.3420771999E-01       5    8    1        -0.1844938201E+01      0.4531035997E+01
          0                 4           2             4    7     1       0.3621653085E-01       5    8    1         0.1998463022E+01      0.4894756683E+01
          0                 5           2             4    7     1      -0.1441439007E-02       5    8    1        -0.8178265196E-01      0.2003037211E+00
          0                 6           1             4    7     1       0.1778675119E-04       5    8    1         0.1037522713E-02      0.2543429341E-02

    ------------------------------------------------
       NWT REQUIRED            6 OUTER ITERATIONS 
       AND A TOTAL OF         11 INNER ITERATIONS.
    ------------------------------------------------

 NO OUTPUT CONTROL FOR STRESS PERIOD   10   TIME STEP   21
 
 SOLVING FOR HEAD 
                                                   Max.-Head-Change                         Max.-Flux-Residual
  Residual-Control   Outer-Iter.   Inner-Iter.     Column Row Layer    Maximum-Head-Change  Column Row Layer    Maximum-Flux-Residual          L2-NORM 
          0                 1           2             4    7     1       0.9086638433E-01       4    7    1         0.4779749967E+01      0.1047360557E+02
          0                 2           2             4    7     1      -0.8838919442E-02       4    7    1        -0.4779817084E+00      0.1048531407E+01
          0                 3           2             4    7     1      -0.3421544116E-01       5    8    1        -0.1845615074E+01      0.4532461316E+01
          0                 4           2             4    7     1       0.3621709679E-01       5    8    1         0.1998515153E+01      0.4894868481E+01
          0                 5           2             4    7     1      -0.1441461531E-02       5    8    1        -0.8178477023E-01      0.2003082484E+00
          0                 6           1             4    7     1       0.1778702911E-04       5    8    1         0.1037549386E-02      0.2543486956E-02

    ------------------------------------------------
       NWT REQUIRED            6 OUTER ITERATIONS 
       AND A TOTAL OF         11 INNER ITERATIONS.
    ------------------------------------------------

 NO OUTPUT CONTROL FOR STRESS PERIOD   10   TIME STEP   22
 
 SOLVING FOR HEAD 
                                                   Max.-Head-Change                         Max.-Flux-Residual
  Residual-Control   Outer-Iter.   Inner-Iter.     Column Row Layer    Maximum-Head-Change  Column Row Layer    Maximum-Flux-Residual          L2-NORM 
          0                 1           2             4    7     1       0.8973197501E-01       4    7    1         0.4721140480E+01      0.1026469716E+02
          0                 2           2             4    7     1      -0.8728573923E-02       4    7    1        -0.4721208621E+00      0.1027665109E+01
          0                 3           2             4    7     1      -0.3422320532E-01       5    8    1        -0.1846260184E+01      0.4533842902E+01
          0                 4           2             4    7     1       0.3621766437E-01       5    8    1         0.1998565075E+01      0.4894977196E+01
          0                 5           2             4    7     1      -0.1441484121E-02       5    8    1        -0.8178679892E-01      0.2003126583E+00
          0                 6           1             4    7     1       0.1778730791E-04       5    8    1         0.1037574942E-02      0.2543531962E-02

    ------------------------------------------------
       NWT REQUIRED            6 OUTER ITERATIONS 
       AND A TOTAL OF         11 INNER ITERATIONS.
    ------------------------------------------------

 NO OUTPUT CONTROL FOR STRESS PERIOD   10   TIME STEP   23
 
 SOLVING FOR HEAD 
                                                   Max.-Head-Change                         Max.-Flux-Residual
  Residual-Control   Outer-Iter.   Inner-Iter.     Column Row Layer    Maximum-Head-Change  Column Row Layer    Maximum-Flux-Residual          L2-NORM 
          0                 1           2             4    7     1       0.8859325761E-01       4    7    1         0.4662208225E+01      0.1006297419E+02
          0                 2           2             4    7     1      -0.8617808929E-02       4    7    1        -0.4662277111E+00      0.1007517502E+01
          0                 3           2             4    7     1      -0.3423099770E-01       5    8    1        -0.1846875526E+01      0.4535183071E+01
          0                 4           2             4    7     1       0.3621823277E-01       5    8    1         0.1998612928E+01      0.4895082987E+01
          0                 5           2             4    7     1      -0.1441506742E-02       5    8    1        -0.8178874368E-01      0.2003169132E+00
          0                 6           1             4    7     1       0.1778758706E-04       5    8    1         0.1037599477E-02      0.2543686879E-02

    ------------------------------------------------
       NWT REQUIRED            6 OUTER ITERATIONS 
       AND A TOTAL OF         11 INNER ITERATIONS.
    ------------------------------------------------

 NO OUTPUT CONTROL FOR STRESS PERIOD   10   TIME STEP   24
 
 SOLVING FOR HEAD 
                                                   Max.-Head-Change                         Max.-Flux-Residual
  Residual-Control   Outer-Iter.   Inner-Iter.     Column Row Layer    Maximum-Head-Change  Column Row Layer    Maximum-Flux-Residual          L2-NORM 
          0                 1           2             4    7     1       0.8745174713E-01       4    7    1         0.4603038079E+01      0.9868073148E+01
          0                 2           2             4    7     1      -0.8506771867E-02       4    7    1        -0.4603107457E+00      0.9880523756E+00
          0                 3           2             4    7     1      -0.3423880588E-01       5    8    1        -0.1847462676E+01      0.4536482459E+01
          0                 4           2             4    7     1       0.3621879908E-01       5    8    1         0.1998658700E+01      0.4895185632E+01
          0                 5           2             4    7     1      -0.1441529282E-02       5    8    1        -0.8179060402E-01      0.2003210986E+00
          0                 6           1             4    7     1       0.1778786508E-04       5    8    1         0.1037622905E-02      0.2543637286E-02

    ------------------------------------------------
       NWT REQUIRED            6 OUTER ITERATIONS 
       AND A TOTAL OF         11 INNER ITERATIONS.
    ------------------------------------------------

 NO OUTPUT CONTROL FOR STRESS PERIOD   10   TIME STEP   25
 
 SOLVING FOR HEAD 
                                                   Max.-Head-Change                         Max.-Flux-Residual
  Residual-Control   Outer-Iter.   Inner-Iter.     Column Row Layer    Maximum-Head-Change  Column Row Layer    Maximum-Flux-Residual          L2-NORM 
          0                 1           2             4    7     1       0.8630936360E-01       4    7    1         0.4543737537E+01      0.9679637724E+01
          0                 2           2             4    7     1      -0.8395649546E-02       4    7    1        -0.4543807183E+00      0.9692338443E+00
          0                 3           2             4    7     1      -0.3424661693E-01       5    8    1        -0.1848023367E+01      0.4537743458E+01
          0                 4           2             4    7     1       0.3621936260E-01       5    8    1         0.1998702513E+01      0.4895284814E+01
          0                 5           2             4    7     1      -0.1441551709E-02       5    8    1        -0.8179238487E-01      0.2003251124E+00
          0                 6           1             4    7     1       0.1778814187E-04       5    8    1         0.1037645376E-02      0.2543681865E-02

    ------------------------------------------------
       NWT REQUIRED            6 OUTER ITERATIONS 
       AND A TOTAL OF         11 INNER ITERATIONS.
    ------------------------------------------------

 NO OUTPUT CONTROL FOR STRESS PERIOD   10   TIME STEP   26
 
 SOLVING FOR HEAD 
                                                   Max.-Head-Change                         Max.-Flux-Residual
  Residual-Control   Outer-Iter.   Inner-Iter.     Column Row Layer    Maximum-Head-Change  Column Row Layer    Maximum-Flux-Residual          L2-NORM 
          0                 1           2             4    7     1       0.8516734743E-01       4    7    1         0.4484377199E+01      0.9497331242E+01
          0                 2           2             4    7     1      -0.8284562658E-02       4    7    1        -0.4484446912E+00      0.9510284174E+00
          0                 3           2             4    7     1      -0.3425442697E-01       5    8    1        -0.1848559342E+01      0.4538967963E+01
          0                 4           2             4    7     1       0.3621992746E-01       5    8    1         0.1998744727E+01      0.4895382191E+01
          0                 5           2             4    7     1      -0.1441574191E-02       5    8    1        -0.8179410087E-01      0.2003290480E+00
          0                 6           1             4    7     1       0.1778841922E-04       5    8    1         0.1037666974E-02      0.2543721363E-02

    ------------------------------------------------
       NWT REQUIRED            6 OUTER ITERATIONS 
       AND A TOTAL OF         11 INNER ITERATIONS.
    ------------------------------------------------

 NO OUTPUT CONTROL FOR STRESS PERIOD   10   TIME STEP   27
 
 SOLVING FOR HEAD 
                                                   Max.-Head-Change                         Max.-Flux-Residual
  Residual-Control   Outer-Iter.   Inner-Iter.     Column Row Layer    Maximum-Head-Change  Column Row Layer    Maximum-Flux-Residual          L2-NORM 
          0                 1           2             4    7     1       0.8402736289E-01       4    7    1         0.4425050333E+01      0.9320855811E+01
          0                 2           2             4    7     1      -0.8173673129E-02       4    7    1        -0.4425119937E+00      0.9334062664E+00
          0                 3           2             4    7     1      -0.3426222034E-01       5    8    1        -0.1849071923E+01      0.4540156631E+01
          0                 4           2             4    7     1       0.3622048843E-01       5    8    1         0.1998785195E+01      0.4895476754E+01
          0                 5           2             4    7     1      -0.1441596517E-02       5    8    1        -0.8179574601E-01      0.2003328762E+00
          0                 6           1             4    7     1       0.1778869467E-04       5    8    1         0.1037687726E-02      0.2543781209E-02

    ------------------------------------------------
       NWT REQUIRED            6 OUTER ITERATIONS 
       AND A TOTAL OF         11 INNER ITERATIONS.
    ------------------------------------------------

 NO OUTPUT CONTROL FOR STRESS PERIOD   10   TIME STEP   28
 
 SOLVING FOR HEAD 
                                                   Max.-Head-Change                         Max.-Flux-Residual
  Residual-Control   Outer-Iter.   Inner-Iter.     Column Row Layer    Maximum-Head-Change  Column Row Layer    Maximum-Flux-Residual          L2-NORM 
          0                 1           2             4    7     1       0.8289041524E-01       4    7    1         0.4365814270E+01      0.9149916354E+01
          0                 2           2             4    7     1      -0.8063078770E-02       4    7    1        -0.4365883607E+00      0.9163382032E+00
          0                 3           2             4    7     1      -0.3426999030E-01       5    8    1        -0.1849562347E+01      0.4541311200E+01
          0                 4           2             4    7     1       0.3622104511E-01       5    8    1         0.1998824002E+01      0.4895568635E+01
          0                 5           2             4    7     1      -0.1441618673E-02       5    8    1        -0.8179732378E-01      0.2003366063E+00
          0                 6           1             4    7     1       0.1778896799E-04       5    8    1         0.1037707606E-02      0.2543812819E-02

    ------------------------------------------------
       NWT REQUIRED            6 OUTER ITERATIONS 
       AND A TOTAL OF         11 INNER ITERATIONS.
    ------------------------------------------------

 NO OUTPUT CONTROL FOR STRESS PERIOD   10   TIME STEP   29
 
 SOLVING FOR HEAD 
                                                   Max.-Head-Change                         Max.-Flux-Residual
  Residual-Control   Outer-Iter.   Inner-Iter.     Column Row Layer    Maximum-Head-Change  Column Row Layer    Maximum-Flux-Residual          L2-NORM 
          0                 1           2             4    7     1       0.8175794707E-01       4    7    1         0.4306750098E+01      0.8984252220E+01
          0                 2           2             4    7     1      -0.7952919934E-02       4    7    1        -0.4306819028E+00      0.8997973139E+00
          0                 3           2             4    7     1      -0.3427773157E-01       5    8    1        -0.1850032220E+01      0.4542433397E+01
          0                 4           2             4    7     1       0.3622160160E-01       5    8    1         0.1998861499E+01      0.4895658515E+01
          0                 5           2             4    7     1      -0.1441640821E-02       5    8    1        -0.8179884842E-01      0.2003402336E+00
          0                 6           1             4    7     1       0.1778924131E-04       5    8    1         0.1037726823E-02      0.2543849142E-02

    ------------------------------------------------
       NWT REQUIRED            6 OUTER ITERATIONS 
       AND A TOTAL OF         11 INNER ITERATIONS.
    ------------------------------------------------

 NO OUTPUT CONTROL FOR STRESS PERIOD   10   TIME STEP   30



 STREAM LISTING     PERIOD     10   STEP       30

 LAYER ROW COL. STREAM  RCH.  FLOW INTO     FLOW TO   FLOW OUT OF   OVRLND.     DIRECT     STREAM       STREAM     STREAM     STREAM   STREAMBED  STREAMBED
                SEG.NO.  NO.  STRM. RCH.    AQUIFER    STRM. RCH.    RUNOFF     PRECIP       ET          HEAD       DEPTH      WIDTH   CONDCTNC.   GRADIENT

   1    1    1     1     1    1.7625E+01  2.0521E-01   1.7420E+01  0.000E+00  0.000E+00  0.000E+00  1.09411E+03  1.059E+00  1.124E+01  5.056E-02  1.353E+00
   1    2    2     1     2    1.7420E+01  3.1649E-01   1.7103E+01  0.000E+00  0.000E+00  0.000E+00  1.08911E+03  1.054E+00  1.115E+01  7.807E-02  1.351E+00
   1    3    3     1     3    1.7103E+01  2.6863E-01   1.6835E+01  0.000E+00  0.000E+00  0.000E+00  1.08347E+03  1.049E+00  1.106E+01  6.635E-02  1.350E+00
   1    3    4     1     4    1.6835E+01  2.4632E-01   1.6588E+01  0.000E+00  0.000E+00  0.000E+00  1.07845E+03  1.044E+00  1.097E+01  6.091E-02  1.348E+00
   1    4    5     2     1    1.4588E+01  3.0175E-01   1.4286E+01  0.000E+00  0.000E+00  0.000E+00  1.07280E+03  8.686E-01  1.200E+01  7.800E-02  1.290E+00
   1    5    6     2     2    1.4286E+01  2.3154E-01   1.4055E+01  0.000E+00  0.000E+00  0.000E+00  1.06737E+03  8.590E-01  1.200E+01  6.000E-02  1.286E+00
   1    6    6     2     3    1.4055E+01  2.3103E-01   1.3824E+01  0.000E+00  0.000E+00  0.000E+00  1.06264E+03  8.505E-01  1.200E+01  6.000E-02  1.284E+00
   1    7    6     2     4    1.3824E+01  2.3052E-01   1.3593E+01  0.000E+00  0.000E+00  0.000E+00  1.05792E+03  8.421E-01  1.200E+01  6.000E-02  1.281E+00
   1    8    6     2     5    1.3593E+01  2.3001E-01   1.3363E+01  0.000E+00  0.000E+00  0.000E+00  1.05319E+03  8.335E-01  1.200E+01  6.000E-02  1.278E+00
   1    3    5     3     1    2.0000E+00  2.8252E-01   1.7175E+00  0.000E+00  0.000E+00  0.000E+00  1.07555E+03  1.909E+00  9.636E+00  7.227E-02  1.955E+00
   1    3    6     3     2    1.7175E+00  2.4905E-01   1.4684E+00  0.000E+00  0.000E+00  0.000E+00  1.07264E+03  1.727E+00  8.909E+00  6.682E-02  1.864E+00
   1    3    7     3     3    1.4684E+00  1.9718E-01   1.2712E+00  0.000E+00  0.000E+00  0.000E+00  1.06987E+03  1.555E+00  8.218E+00  5.547E-02  1.777E+00
   1    4    8     3     4    1.2712E+00  2.2567E-01   1.0456E+00  0.000E+00  0.000E+00  0.000E+00  1.06682E+03  1.364E+00  7.455E+00  6.709E-02  1.682E+00
   1    5    8     3     5    1.0456E+00  1.5790E-01   8.8768E-01  0.000E+00  0.000E+00  0.000E+00  1.06362E+03  1.164E+00  6.655E+00  4.991E-02  1.582E+00
   1    6    8     3     6    8.8768E-01  5.5980E-02   8.3170E-01  0.000E+00  0.000E+00  0.000E+00  1.06158E+03  1.036E+00  6.145E+00  1.844E-02  1.518E+00
   1    5   10     4     1    1.0000E+01  9.0919E-02   9.9091E+00  0.000E+00  0.000E+00  0.000E+00  1.07836E+03  6.368E-01  1.000E+01  2.500E-02  1.212E+00
   1    5    9     4     2    9.9091E+00  1.8158E-01   9.7275E+00  0.000E+00  0.000E+00  0.000E+00  1.07154E+03  6.315E-01  1.000E+01  5.000E-02  1.211E+00
   1    6    8     4     3    9.7275E+00  1.2689E-01   9.6006E+00  0.000E+00  0.000E+00  0.000E+00  1.06381E+03  6.256E-01  1.000E+01  3.500E-02  1.209E+00
   1    6    8     5     1    1.0432E+01  2.2686E-01   1.0205E+01  0.000E+00  0.000E+00  0.000E+00  1.05868E+03  6.790E-01  1.542E+01  6.166E-02  1.226E+00
   1    7    7     5     2    1.0205E+01  2.7894E-01   9.9265E+00  0.000E+00  0.000E+00  0.000E+00  1.05417E+03  6.732E-01  1.519E+01  7.594E-02  1.224E+00
   1    8    7     5     3    9.9265E+00  1.9221E-01   9.7343E+00  0.000E+00  0.000E+00  0.000E+00  1.04992E+03  6.676E-01  1.497E+01  5.241E-02  1.223E+00
   1    8    6     5     4    9.7343E+00  1.3577E-01   9.5985E+00  0.000E+00  0.000E+00  0.000E+00  1.04691E+03  6.637E-01  1.482E+01  3.706E-02  1.221E+00
   1    9    6     6     1    1.1746E+01  2.2629E-01   1.1520E+01  0.000E+00  0.000E+00  0.000E+00  1.04350E+03  7.716E-01  1.200E+01  6.000E-02  1.257E+00
   1   10    7     6     2    1.1520E+01  2.2575E-01   1.1294E+01  0.000E+00  0.000E+00  0.000E+00  1.03894E+03  7.626E-01  1.200E+01  6.000E-02  1.254E+00
   1   11    7     6     3    1.1294E+01  2.2521E-01   1.1069E+01  0.000E+00  0.000E+00  0.000E+00  1.03439E+03  7.535E-01  1.200E+01  6.000E-02  1.251E+00
   1   12    7     6     4    1.1069E+01  2.2466E-01   1.0844E+01  0.000E+00  0.000E+00  0.000E+00  1.02984E+03  7.443E-01  1.200E+01  6.000E-02  1.248E+00
   1   13    7     6     5    1.0844E+01 -4.3473E-02   1.0888E+01  0.000E+00  0.000E+00  0.000E+00  1.02665E+03  7.406E-01  1.200E+01  2.400E-01 -6.038E-02
   1   14    9     7     1    1.5000E+02  1.3688E+00   1.4863E+02  0.000E+00  0.000E+00  0.000E+00  1.03987E+03  2.288E+00  5.529E+01  5.593E-01  8.158E-01
   1   13    8     7     2    1.4863E+02  1.9190E+00   1.4671E+02  0.000E+00  0.000E+00  0.000E+00  1.03478E+03  2.279E+00  5.526E+01  6.148E-01  1.041E+00
   1   13    7     7     3    1.4671E+02  1.5959E+00   1.4512E+02  0.000E+00  0.000E+00  0.000E+00  1.02969E+03  2.270E+00  5.521E+01  5.584E-01  9.527E-01
   1   13    6     8     1    1.5600E+02  9.5947E-01   1.5504E+02  0.000E+00  0.000E+00  0.000E+00  1.02473E+03  2.855E+00  4.140E+01  4.219E-01  7.581E-01
   1   13    5     8     2    1.5504E+02  2.2009E-01   1.5482E+02  0.000E+00  0.000E+00  0.000E+00  1.01848E+03  2.851E+00  4.134E+01  4.213E-01  1.741E-01
   1   13    4     8     3    1.5482E+02 -2.2716E+00   1.5710E+02  0.000E+00  0.000E+00  0.000E+00  1.01223E+03  2.858E+00  4.145E+01  4.223E+00 -1.793E-01
   1   13    3     8     4    1.5710E+02 -3.5647E+00   1.6066E+02  0.000E+00  0.000E+00  0.000E+00  1.00600E+03  2.878E+00  4.173E+01  4.253E+00 -2.794E-01
   1   13    2     8     5    1.6066E+02 -2.5596E+00   1.6322E+02  0.000E+00  0.000E+00  0.000E+00  9.99774E+02  2.899E+00  4.203E+01  4.283E+00 -1.992E-01
   1   13    1     8     6    1.6322E+02 -1.9747E+00   1.6519E+02  0.000E+00  0.000E+00  0.000E+00  9.94789E+02  2.914E+00  4.225E+01  2.583E+00 -2.548E-01
   1    8    6     9     1    1.1216E+01  0.0000E+00   1.1216E+01  0.000E+00  0.000E+00  0.000E+00  1.08118E+03  2.428E+00  4.000E+00  0.000E+00  1.809E+00
   1    8    5     9     2    1.1216E+01  0.0000E+00   1.1216E+01  0.000E+00  0.000E+00  0.000E+00  1.08068E+03  2.428E+00  4.000E+00  0.000E+00  1.809E+00





UNSATURATED ZONE PACKAGE VOLUMETRIC BUDGET FOR  TIME STEP    30 STRESS PERIOD   10
  ------------------------------------------------------------------------------



     CUMULATIVE VOLUMES      L**3       RATES FOR THIS TIME STEP      L**3/T
     ------------------                 ------------------------

           IN:                                      IN:
           ---                                      ---
        INFILTRATION =   664749590.1771          INFILTRATION =          12.0636

          OUT:                                     OUT:
          ----                                     ----
              UZF ET =   426026102.6373                UZF ET =          12.0675
        UZF RECHARGE =       73224.0000          UZF RECHARGE =       0.0000E+00

            IN - OUT =   238650263.5398              IN - OUT =      -3.8881E-03

          STORAGE:                                 STORAGE:
          --------                                 --------
      STORAGE CHANGE =   238650612.0201        STORAGE CHANGE =      -3.8881E-03

 PERCENT DISCREPANCY IS DIFFERENCE BETWEEN IN-OUT MINUS CHANGE IN STORAGE
 DIVIDED BY THE AVERAGE OF IN AND OUT TIMES 100

 PERCENT DISCREPANCY =          -0.00     PERCENT DISCREPANCY =           0.00






1
  VOLUMETRIC BUDGET FOR AGRICULTURAL FIELDS AT  END OF TIME STEP   30, STRESS PERIOD  10
  ------------------------------------------------------------------------------

     CUMULATIVE VOLUMES      L**3       RATES FOR THIS TIME STEP      L**3/T
     ------------------                 ------------------------

           IN:                                      IN:
           ---                                      ---
               AG WELLS  =   429841792.0000                 AG WELLS  =           0.0000
      DIVERSION SEGMENTS =   214830320.0000        DIVERSION SEGMENTS =          11.2159
       IRRIGATION PONDS  =           0.0000         IRRIGATION PONDS  =           0.0000
           GW IRRIGATION =           0.0000             GW IRRIGATION =           0.0000
           SW IRRIGATION =           0.0000             SW IRRIGATION =           0.0000
        SYSTEM LOSSES GW =           0.0000          SYSTEM LOSSES GW =           0.0000
        SYSTEM LOSSES SW =           0.0000          SYSTEM LOSSES SW =           0.0000

                TOTAL IN =   644672128.0000                  TOTAL IN =          11.2159

          OUT:                                     OUT:
          ----                                     ----
               AG WELLS  =           0.0000                 AG WELLS  =           0.0000
      DIVERSION SEGMENTS =           0.0000        DIVERSION SEGMENTS =           0.0000
       IRRIGATION PONDS  =           0.0000         IRRIGATION PONDS  =           0.0000
           GW IRRIGATION =   429841792.0000             GW IRRIGATION =           0.0000
           SW IRRIGATION =   214834512.0000             SW IRRIGATION =          11.2161
        SYSTEM LOSSES GW =           0.0000          SYSTEM LOSSES GW =           0.0000
        SYSTEM LOSSES SW =           0.0000          SYSTEM LOSSES SW =           0.0000

               TOTAL OUT =   644676288.0000                 TOTAL OUT =          11.2161

                IN - OUT =       -4160.0000                  IN - OUT =      -2.2316E-04

     PERCENT DISCREPANCY =          -0.00         PERCENT DISCREPANCY =          -0.00



1
  VOLUMETRIC BUDGET FOR ENTIRE MODEL AT END OF TIME STEP   30, STRESS PERIOD  10
  ------------------------------------------------------------------------------

     CUMULATIVE VOLUMES      L**3       RATES FOR THIS TIME STEP      L**3/T
     ------------------                 ------------------------

           IN:                                      IN:
           ---                                      ---
             STORAGE     =   564840640.0000               STORAGE     =          19.0510
       CONSTANT HEAD     =           0.0000         CONSTANT HEAD     =           0.0000
     HEAD DEP BOUNDS     =     6839597.0000       HEAD DEP BOUNDS     =           0.2880
      STREAM LEAKAGE     =   281154208.0000        STREAM LEAKAGE     =          11.6281
        UZF RECHARGE     =       73223.9531          UZF RECHARGE     =           0.0000
               GW ET     =           0.0000                 GW ET     =           0.0000
     SURFACE LEAKAGE     =           0.0000       SURFACE LEAKAGE     =           0.0000
           AG WELLS      =           0.0000             AG WELLS      =           0.0000

                TOTAL IN =   852907648.0000                  TOTAL IN =          30.9671

          OUT:                                     OUT:
          ----                                     ----
             STORAGE     =   170210752.0000               STORAGE     =          20.2660
       CONSTANT HEAD     =           0.0000         CONSTANT HEAD     =           0.0000
     HEAD DEP BOUNDS     =     6844441.0000       HEAD DEP BOUNDS     =           0.2870
      STREAM LEAKAGE     =   246013056.0000        STREAM LEAKAGE     =          10.4140
        UZF RECHARGE     =           0.0000          UZF RECHARGE     =           0.0000
               GW ET     =           0.0000                 GW ET     =           0.0000
     SURFACE LEAKAGE     =           0.0000       SURFACE LEAKAGE     =           0.0000
           AG WELLS      =   429841792.0000             AG WELLS      =           0.0000

               TOTAL OUT =   852910080.0000                 TOTAL OUT =          30.9670

                IN - OUT =       -2432.0000                  IN - OUT =       9.5367E-05

     PERCENT DISCREPANCY =          -0.00         PERCENT DISCREPANCY =           0.00






         TIME SUMMARY AT END OF TIME STEP   30 IN STRESS PERIOD   10
                    SECONDS     MINUTES      HOURS       DAYS        YEARS
                    -----------------------------------------------------------
   TIME STEP LENGTH  87667.      1461.1      24.352      1.0147     2.77799E-03
 STRESS PERIOD TIME 2.63000E+06  43833.      730.56      30.440     8.33397E-02
         TOTAL TIME 2.37564E+07 3.95940E+05  6599.0      274.96     0.75279    
1
1
                            STRESS PERIOD NO.   11, LENGTH =   2630000.    
                            -----------------------------------------------

                              NUMBER OF TIME STEPS =    30

                               MULTIPLIER FOR DELT =     1.000

                            INITIAL TIME STEP SIZE =   87666.66    

 REUSING NON-PARAMETER GHB CELLS FROM LAST STRESS PERIOD

      2 GHB CELLS

 REUSING STREAM SEGMENT DATA FROM LAST STRESS PERIOD



            AREAL INFILTRATION RATE
 READING ON UNIT   19 WITH FORMAT: (FREE)              

            1           2           3           4           5           6           7           8           9          10
 ........................................................................................................................
   1   1.0000E-10  2.0000E-10   0.000       0.000       0.000       0.000       0.000       0.000       0.000       0.000    
   2   2.0000E-10  1.0000E-10  2.0000E-10   0.000       0.000      8.0000E-10  8.0000E-10  5.0000E-10   0.000       0.000    
   3    0.000      5.0000E-10  1.0000E-10  1.0000E-10  8.0000E-10  8.0000E-10  5.0000E-10  5.0000E-10   0.000       0.000    
   4   8.0000E-10  5.0000E-10  1.0000E-10  1.0000E-10  1.0000E-10  1.0000E-10  1.0000E-10  1.0000E-10  2.0000E-10   0.000    
   5   8.0000E-10  5.0000E-10  1.0000E-10  1.0000E-10  1.0000E-10  1.0000E-10  1.0000E-10  1.0000E-10  1.0000E-10  1.0000E-10
   6   8.0000E-10  5.0000E-10  5.0000E-10  2.0000E-10  2.0000E-10  1.0000E-10  1.0000E-10  1.0000E-10  1.0000E-10  5.0000E-10
   7   8.0000E-10  5.0000E-10  5.0000E-10  2.0000E-10  2.0000E-10  1.0000E-10  1.0000E-10  2.0000E-10  2.0000E-10   0.000    
   8    0.000      5.0000E-10  5.0000E-10  2.0000E-10  2.0000E-10  1.0000E-10  1.0000E-10  2.0000E-10  5.0000E-10   0.000    
   9    0.000      5.0000E-10  5.0000E-10  2.0000E-10  2.0000E-10  1.0000E-10  1.0000E-10  2.0000E-10  5.0000E-10   0.000    
  10    0.000      5.0000E-10  5.0000E-10  2.0000E-10  2.0000E-10  1.0000E-10  1.0000E-10  2.0000E-10  5.0000E-10  8.0000E-10
  11    0.000      1.0000E-10  1.0000E-10  1.0000E-10  1.0000E-10  1.0000E-10  1.0000E-10  2.0000E-10  5.0000E-10   0.000    
  12   1.0000E-10  1.0000E-10  1.0000E-10  1.0000E-10  1.0000E-10  1.0000E-10  1.0000E-10  1.0000E-10  2.0000E-10   0.000    
  13   1.0000E-10  1.0000E-10  2.0000E-10  2.0000E-10  2.0000E-10  2.0000E-10  2.0000E-10  1.0000E-10  1.0000E-10   0.000    
  14    0.000      2.0000E-10  5.0000E-10  5.0000E-10  5.0000E-10  5.0000E-10  5.0000E-10  2.0000E-10  1.0000E-10   0.000    
  15    0.000       0.000      8.0000E-10  8.0000E-10  8.0000E-10  8.0000E-10   0.000       0.000       0.000       0.000    

                  ET RATE =  5.000000E-09

 USING ET EXTINCTION DEPTH FROM PREVIOUS STRESS PERIOD. CURRENT PERIOD IS:      11

 USING EXTINCTION WATER CONTENT FROM PREVIOUS STRESS PERIOD. CURRENT PERIOD IS:      11

 USING AIR ENTRY PRESSURE FROM PREVIOUS STRESS PERIOD. CURRENT PERIOD IS:      11

 USING ROOT PRESSURE HEAD FROM PREVIOUS STRESS PERIOD. CURRENT PERIOD IS:      11

 USING ROOT ACTIVITY FROM PREVIOUS STRESS PERIOD. CURRENT PERIOD IS:      11

 PROCESSING AG STRESS PERIOD DATA

 READING AG STRESS PERIOD DATA

 READING IRRIGATION SEGMENT

 READING IRRIGATION WELL

 READING SUPPLEMENTAL WELL

 NO IRRPOND OR REUSING IRRPOND DATA FROM LAST STRESS PERIOD

 END PROCESSING AG STRESS PERIOD DATA OPTIONS
 
 SOLVING FOR HEAD 
                                                   Max.-Head-Change                         Max.-Flux-Residual
  Residual-Control   Outer-Iter.   Inner-Iter.     Column Row Layer    Maximum-Head-Change  Column Row Layer    Maximum-Flux-Residual          L2-NORM 
          0                 1           2             4    7     1       0.8063086613E-01       4    7    1         0.4247910887E+01      0.8822674449E+01
          0                 2           2             4    7     1      -0.7843284746E-02       4    7    1        -0.4247979182E+00      0.8829318061E+00
          0                 3           2             4    7     1       0.5340976351E-03       4    7    1         0.2973580250E-01      0.6180195834E-01
          0                 4           1             4    7     1      -0.2125224925E-04       4    7    1        -0.1216196324E-02      0.2527491031E-02

    ------------------------------------------------
       NWT REQUIRED            4 OUTER ITERATIONS 
       AND A TOTAL OF          7 INNER ITERATIONS.
    ------------------------------------------------

 NO OUTPUT CONTROL FOR STRESS PERIOD   11   TIME STEP    1
 
 SOLVING FOR HEAD 
                                                   Max.-Head-Change                         Max.-Flux-Residual
  Residual-Control   Outer-Iter.   Inner-Iter.     Column Row Layer    Maximum-Head-Change  Column Row Layer    Maximum-Flux-Residual          L2-NORM 
          0                 1           2             4    7     1       0.7951012889E-01       4    7    1         0.4189351090E+01      0.8666101221E+01
          0                 2           2             4    7     1      -0.7734266665E-02       4    7    1        -0.4189418750E+00      0.8665969843E+00
          0                 3           2             4    7     1       0.5266739164E-03       4    7    1         0.2932587989E-01      0.6066045304E-01
          0                 4           1             4    7     1      -0.2095685232E-04       4    7    1        -0.1199430452E-02      0.2481003727E-02

    ------------------------------------------------
       NWT REQUIRED            4 OUTER ITERATIONS 
       AND A TOTAL OF          7 INNER ITERATIONS.
    ------------------------------------------------

 NO OUTPUT CONTROL FOR STRESS PERIOD   11   TIME STEP    2
 
 SOLVING FOR HEAD 
                                                   Max.-Head-Change                         Max.-Flux-Residual
  Residual-Control   Outer-Iter.   Inner-Iter.     Column Row Layer    Maximum-Head-Change  Column Row Layer    Maximum-Flux-Residual          L2-NORM 
          0                 1           2             4    7     1       0.7839661830E-01       4    7    1         0.4131120006E+01      0.8514014318E+01
          0                 2           2             4    7     1      -0.7625951401E-02       4    7    1        -0.4131186936E+00      0.8513905390E+00
          0                 3           2             4    7     1       0.5192980588E-03       4    7    1         0.2891825771E-01      0.5959616803E-01
          0                 4           1             4    7     1      -0.2066336029E-04       4    7    1        -0.1182758684E-02      0.2437443031E-02

    ------------------------------------------------
       NWT REQUIRED            4 OUTER ITERATIONS 
       AND A TOTAL OF          7 INNER ITERATIONS.
    ------------------------------------------------

 NO OUTPUT CONTROL FOR STRESS PERIOD   11   TIME STEP    3
 
 SOLVING FOR HEAD 
                                                   Max.-Head-Change                         Max.-Flux-Residual
  Residual-Control   Outer-Iter.   Inner-Iter.     Column Row Layer    Maximum-Head-Change  Column Row Layer    Maximum-Flux-Residual          L2-NORM 
          0                 1           2             4    7     1       0.7729113911E-01       4    7    1         0.4073263563E+01      0.8366361899E+01
          0                 2           2             4    7     1      -0.7518417252E-02       4    7    1        -0.4073329680E+00      0.8366272545E+00
          0                 3           2             4    7     1       0.5119753941E-03       4    7    1         0.2851325754E-01      0.5856291696E-01
          0                 4           1             4    7     1      -0.2037198454E-04       4    7    1        -0.1166194163E-02      0.2395159256E-02

    ------------------------------------------------
       NWT REQUIRED            4 OUTER ITERATIONS 
       AND A TOTAL OF          7 INNER ITERATIONS.
    ------------------------------------------------

 NO OUTPUT CONTROL FOR STRESS PERIOD   11   TIME STEP    4
 
 SOLVING FOR HEAD 
                                                   Max.-Head-Change                         Max.-Flux-Residual
  Residual-Control   Outer-Iter.   Inner-Iter.     Column Row Layer    Maximum-Head-Change  Column Row Layer    Maximum-Flux-Residual          L2-NORM 
          0                 1           2             4    7     1       0.7619468953E-01       4    7    1         0.4015837986E+01      0.8222955430E+01
          0                 2           2             4    7     1      -0.7411761330E-02       4    7    1        -0.4015903220E+00      0.8222883017E+00
          0                 3           2             4    7     1       0.5047125332E-03       4    7    1         0.2811127296E-01      0.5755934135E-01
          0                 4           1             4    7     1      -0.2008298847E-04       4    7    1        -0.1149752962E-02      0.2354143630E-02

    ------------------------------------------------
       NWT REQUIRED            4 OUTER ITERATIONS 
       AND A TOTAL OF          7 INNER ITERATIONS.
    ------------------------------------------------

 NO OUTPUT CONTROL FOR STRESS PERIOD   11   TIME STEP    5
 
 SOLVING FOR HEAD 
                                                   Max.-Head-Change                         Max.-Flux-Residual
  Residual-Control   Outer-Iter.   Inner-Iter.     Column Row Layer    Maximum-Head-Change  Column Row Layer    Maximum-Flux-Residual          L2-NORM 
          0                 1           2             4    7     1       0.7510763975E-01       4    7    1         0.3958866034E+01      0.8083578362E+01
          0                 2           2             4    7     1      -0.7306019662E-02       4    7    1        -0.3958930326E+00      0.8083520211E+00
          0                 3           2             4    7     1       0.4975119309E-03       4    7    1         0.2771246342E-01      0.5658393263E-01
          0                 4           1             4    7     1      -0.1979646949E-04       4    7    1        -0.1133441614E-02      0.2314242220E-02

    ------------------------------------------------
       NWT REQUIRED            4 OUTER ITERATIONS 
       AND A TOTAL OF          7 INNER ITERATIONS.
    ------------------------------------------------

 NO OUTPUT CONTROL FOR STRESS PERIOD   11   TIME STEP    6
 
 SOLVING FOR HEAD 
                                                   Max.-Head-Change                         Max.-Flux-Residual
  Residual-Control   Outer-Iter.   Inner-Iter.     Column Row Layer    Maximum-Head-Change  Column Row Layer    Maximum-Flux-Residual          L2-NORM 
          0                 1           2             4    7     1       0.7403058187E-01       4    7    1         0.3902381401E+01      0.7948072240E+01
          0                 2           2             4    7     1      -0.7201249855E-02       4    7    1        -0.3902444697E+00      0.7948026506E+00
          0                 3           2             4    7     1       0.4903775091E-03       4    7    1         0.2731706477E-01      0.5563556574E-01
          0                 4           1             4    7     1      -0.1951258371E-04       4    7    1        -0.1117269771E-02      0.2275446969E-02

    ------------------------------------------------
       NWT REQUIRED            4 OUTER ITERATIONS 
       AND A TOTAL OF          7 INNER ITERATIONS.
    ------------------------------------------------

 NO OUTPUT CONTROL FOR STRESS PERIOD   11   TIME STEP    7
 
 SOLVING FOR HEAD 
                                                   Max.-Head-Change                         Max.-Flux-Residual
  Residual-Control   Outer-Iter.   Inner-Iter.     Column Row Layer    Maximum-Head-Change  Column Row Layer    Maximum-Flux-Residual          L2-NORM 
          0                 1           2             4    7     1       0.7296430281E-01       4    7    1         0.3846429292E+01      0.7816268917E+01
          0                 2           2             4    7     1      -0.7097528471E-02       4    7    1        -0.3846491550E+00      0.7816233745E+00
          0                 3           2             4    7     1       0.4833144825E-03       4    7    1         0.2692539357E-01      0.5471312355E-01
          0                 4           1             4    7     1      -0.1923153939E-04       4    7    1        -0.1101250399E-02      0.2237738920E-02

    ------------------------------------------------
       NWT REQUIRED            4 OUTER ITERATIONS 
       AND A TOTAL OF          7 INNER ITERATIONS.
    ------------------------------------------------

 NO OUTPUT CONTROL FOR STRESS PERIOD   11   TIME STEP    8
 
 SOLVING FOR HEAD 
                                                   Max.-Head-Change                         Max.-Flux-Residual
  Residual-Control   Outer-Iter.   Inner-Iter.     Column Row Layer    Maximum-Head-Change  Column Row Layer    Maximum-Flux-Residual          L2-NORM 
          0                 1           2             4    7     1       0.7190912571E-01       4    7    1         0.3791028752E+01      0.7688020619E+01
          0                 2           2             4    7     1      -0.6994886950E-02       4    7    1        -0.3791089938E+00      0.7687994488E+00
          0                 3           2             4    7     1       0.4763249908E-03       4    7    1         0.2653758313E-01      0.5381551915E-01
          0                 4           1             4    7     1      -0.1895342127E-04       4    7    1        -0.1085388939E-02      0.2201029886E-02

    ------------------------------------------------
       NWT REQUIRED            4 OUTER ITERATIONS 
       AND A TOTAL OF          7 INNER ITERATIONS.
    ------------------------------------------------

 NO OUTPUT CONTROL FOR STRESS PERIOD   11   TIME STEP    9
 
 SOLVING FOR HEAD 
                                                   Max.-Head-Change                         Max.-Flux-Residual
  Residual-Control   Outer-Iter.   Inner-Iter.     Column Row Layer    Maximum-Head-Change  Column Row Layer    Maximum-Flux-Residual          L2-NORM 
          0                 1           2             4    7     1       0.7086545343E-01       4    7    1         0.3736203790E+01      0.7563166598E+01
          0                 2           2             4    7     1      -0.6893364490E-02       4    7    1        -0.3736263873E+00      0.7563148278E+00
          0                 3           2             4    7     1       0.4694117032E-03       4    7    1         0.2615380155E-01      0.5294166290E-01
          0                 4           1             4    7     1      -0.1867833481E-04       4    7    1        -0.1069692239E-02      0.2165302519E-02

    ------------------------------------------------
       NWT REQUIRED            4 OUTER ITERATIONS 
       AND A TOTAL OF          7 INNER ITERATIONS.
    ------------------------------------------------

 NO OUTPUT CONTROL FOR STRESS PERIOD   11   TIME STEP   10
 
 SOLVING FOR HEAD 
                                                   Max.-Head-Change                         Max.-Flux-Residual
  Residual-Control   Outer-Iter.   Inner-Iter.     Column Row Layer    Maximum-Head-Change  Column Row Layer    Maximum-Flux-Residual          L2-NORM 
          0                 1           2             4    7     1       0.6983364137E-01       4    7    1         0.3681975292E+01      0.7441579551E+01
          0                 2           2             4    7     1      -0.6792995671E-02       4    7    1        -0.3682034250E+00      0.7441567174E+00
          0                 3           2             4    7     1       0.4625769749E-03       4    7    1         0.2577419509E-01      0.5209067258E-01
          0                 4           1             4    7     1      -0.1840637452E-04       4    7    1        -0.1054166314E-02      0.2130507576E-02

    ------------------------------------------------
       NWT REQUIRED            4 OUTER ITERATIONS 
       AND A TOTAL OF          7 INNER ITERATIONS.
    ------------------------------------------------

 NO OUTPUT CONTROL FOR STRESS PERIOD   11   TIME STEP   11
 
 SOLVING FOR HEAD 
                                                   Max.-Head-Change                         Max.-Flux-Residual
  Residual-Control   Outer-Iter.   Inner-Iter.     Column Row Layer    Maximum-Head-Change  Column Row Layer    Maximum-Flux-Residual          L2-NORM 
          0                 1           2             4    7     1       0.6881412856E-01       4    7    1         0.3628368946E+01      0.7323130899E+01
          0                 2           2             4    7     1      -0.6693823209E-02       4    7    1        -0.3628426761E+00      0.7323124695E+00
          0                 3           2             4    7     1       0.4558237139E-03       4    7    1         0.2539894358E-01      0.5126161026E-01
          0                 4           1             4    7     1      -0.1813765565E-04       4    7    1        -0.1038818487E-02      0.2096592673E-02

    ------------------------------------------------
       NWT REQUIRED            4 OUTER ITERATIONS 
       AND A TOTAL OF          7 INNER ITERATIONS.
    ------------------------------------------------

 NO OUTPUT CONTROL FOR STRESS PERIOD   11   TIME STEP   12
 
 SOLVING FOR HEAD 
                                                   Max.-Head-Change                         Max.-Flux-Residual
  Residual-Control   Outer-Iter.   Inner-Iter.     Column Row Layer    Maximum-Head-Change  Column Row Layer    Maximum-Flux-Residual          L2-NORM 
          0                 1           2             4    7     1       0.6780717294E-01       4    7    1         0.3575400259E+01      0.7207693100E+01
          0                 2           2             4    7     1      -0.6595872199E-02       4    7    1        -0.3575456919E+00      0.7207691868E+00
          0                 3           2             4    7     1       0.4491536298E-03       4    7    1         0.2502815562E-01      0.5045361114E-01
          0                 4           1             4    7     1      -0.1787224716E-04       4    7    1        -0.1023653244E-02      0.2063543061E-02

    ------------------------------------------------
       NWT REQUIRED            4 OUTER ITERATIONS 
       AND A TOTAL OF          7 INNER ITERATIONS.
    ------------------------------------------------

 NO OUTPUT CONTROL FOR STRESS PERIOD   11   TIME STEP   13
 
 SOLVING FOR HEAD 
                                                   Max.-Head-Change                         Max.-Flux-Residual
  Residual-Control   Outer-Iter.   Inner-Iter.     Column Row Layer    Maximum-Head-Change  Column Row Layer    Maximum-Flux-Residual          L2-NORM 
          0                 1           2             4    7     1       0.6681299221E-01       4    7    1         0.3523082606E+01      0.7095162998E+01
          0                 2           2             4    7     1      -0.6499163824E-02       4    7    1        -0.3523138102E+00      0.7095165467E+00
          0                 3           2             4    7     1       0.4425681648E-03       4    7    1         0.2466192486E-01      0.4966595569E-01
          0                 4           1             4    7     1      -0.1761020488E-04       4    7    1        -0.1008674368E-02      0.2031338392E-02

    ------------------------------------------------
       NWT REQUIRED            4 OUTER ITERATIONS 
       AND A TOTAL OF          7 INNER ITERATIONS.
    ------------------------------------------------

 NO OUTPUT CONTROL FOR STRESS PERIOD   11   TIME STEP   14
 
 SOLVING FOR HEAD 
                                                   Max.-Head-Change                         Max.-Flux-Residual
  Residual-Control   Outer-Iter.   Inner-Iter.     Column Row Layer    Maximum-Head-Change  Column Row Layer    Maximum-Flux-Residual          L2-NORM 
          0                 1           2             4    7     1       0.6583176657E-01       4    7    1         0.3471427274E+01      0.6985421589E+01
          0                 2           2             4    7     1      -0.6403715619E-02       4    7    1        -0.3471481603E+00      0.6985427691E+00
          0                 3           2             4    7     1       0.4360685126E-03       4    7    1         0.2430033031E-01      0.4889782886E-01
          0                 4           1             4    7     1      -0.1735157763E-04       4    7    1        -0.9938851385E-03      0.2000038454E-02

    ------------------------------------------------
       NWT REQUIRED            4 OUTER ITERATIONS 
       AND A TOTAL OF          7 INNER ITERATIONS.
    ------------------------------------------------

 NO OUTPUT CONTROL FOR STRESS PERIOD   11   TIME STEP   15
 
 SOLVING FOR HEAD 
                                                   Max.-Head-Change                         Max.-Flux-Residual
  Residual-Control   Outer-Iter.   Inner-Iter.     Column Row Layer    Maximum-Head-Change  Column Row Layer    Maximum-Flux-Residual          L2-NORM 
          0                 1           2             4    7     1       0.6486377246E-01       4    7    1         0.3420450870E+01      0.6878360289E+01
          0                 2           2             4    7     1      -0.6309554480E-02       4    7    1        -0.3420504031E+00      0.6878369021E+00
          0                 3           2             4    7     1       0.4296565047E-03       4    7    1         0.2394348826E-01      0.4814844338E-01
          0                 4           1             4    7     1      -0.1709643772E-04       4    7    1        -0.9792902570E-03      0.1969261903E-02

    ------------------------------------------------
       NWT REQUIRED            4 OUTER ITERATIONS 
       AND A TOTAL OF          7 INNER ITERATIONS.
    ------------------------------------------------

 NO OUTPUT CONTROL FOR STRESS PERIOD   11   TIME STEP   16
 
 SOLVING FOR HEAD 
                                                   Max.-Head-Change                         Max.-Flux-Residual
  Residual-Control   Outer-Iter.   Inner-Iter.     Column Row Layer    Maximum-Head-Change  Column Row Layer    Maximum-Flux-Residual          L2-NORM 
          0                 1           2             4    7     1       0.6390898700E-01       4    7    1         0.3370153205E+01      0.6773901911E+01
          0                 2           2             4    7     1      -0.6216678184E-02       4    7    1        -0.3370205200E+00      0.6773913232E+00
          0                 3           2             4    7     1       0.4233319901E-03       4    7    1         0.2359139739E-01      0.4741729366E-01
          0                 4           1             4    7     1      -0.1684477949E-04       4    7    1        -0.9648897280E-03      0.1939365216E-02

    ------------------------------------------------
       NWT REQUIRED            4 OUTER ITERATIONS 
       AND A TOTAL OF          7 INNER ITERATIONS.
    ------------------------------------------------

 NO OUTPUT CONTROL FOR STRESS PERIOD   11   TIME STEP   17
 
 SOLVING FOR HEAD 
                                                   Max.-Head-Change                         Max.-Flux-Residual
  Residual-Control   Outer-Iter.   Inner-Iter.     Column Row Layer    Maximum-Head-Change  Column Row Layer    Maximum-Flux-Residual          L2-NORM 
          0                 1           2             4    7     1       0.6296762554E-01       4    7    1         0.3320547617E+01      0.6671933637E+01
          0                 2           2             4    7     1      -0.6125107684E-02       4    7    1        -0.3320598451E+00      0.6671946889E+00
          0                 3           2             4    7     1       0.4170963950E-03       4    7    1         0.2324415110E-01      0.4670353678E-01
          0                 4           1             4    7     1      -0.1659665913E-04       4    7    1        -0.9506873239E-03      0.1910177422E-02

    ------------------------------------------------
       NWT REQUIRED            4 OUTER ITERATIONS 
       AND A TOTAL OF          7 INNER ITERATIONS.
    ------------------------------------------------

 NO OUTPUT CONTROL FOR STRESS PERIOD   11   TIME STEP   18
 
 SOLVING FOR HEAD 
                                                   Max.-Head-Change                         Max.-Flux-Residual
  Residual-Control   Outer-Iter.   Inner-Iter.     Column Row Layer    Maximum-Head-Change  Column Row Layer    Maximum-Flux-Residual          L2-NORM 
          0                 1           2             4    7     1       0.6203974434E-01       4    7    1         0.3271638012E+01      0.6572384061E+01
          0                 2           2             4    7     1      -0.6034848457E-02       4    7    1        -0.3271687692E+00      0.6572398773E+00
          0                 3           2             4    7     1       0.4109500925E-03       4    7    1         0.2290177672E-01      0.4600671462E-01
          0                 4           1             4    7     1      -0.1635209185E-04       4    7    1        -0.9366841787E-03      0.1881673640E-02

    ------------------------------------------------
       NWT REQUIRED            4 OUTER ITERATIONS 
       AND A TOTAL OF          7 INNER ITERATIONS.
    ------------------------------------------------

 NO OUTPUT CONTROL FOR STRESS PERIOD   11   TIME STEP   19
 
 SOLVING FOR HEAD 
                                                   Max.-Head-Change                         Max.-Flux-Residual
  Residual-Control   Outer-Iter.   Inner-Iter.     Column Row Layer    Maximum-Head-Change  Column Row Layer    Maximum-Flux-Residual          L2-NORM 
          0                 1           2             4    7     1       0.6112536884E-01       4    7    1         0.3223427307E+01      0.6475159464E+01
          0                 2           2             4    7     1      -0.5945902979E-02       4    7    1        -0.3223475843E+00      0.6475175498E+00
          0                 3           2             4    7     1       0.4048932517E-03       4    7    1         0.2256429471E-01      0.4532616163E-01
          0                 4           1             4    7     1      -0.1611108476E-04       4    7    1        -0.9228811559E-03      0.1853832638E-02

    ------------------------------------------------
       NWT REQUIRED            4 OUTER ITERATIONS 
       AND A TOTAL OF          7 INNER ITERATIONS.
    ------------------------------------------------

 NO OUTPUT CONTROL FOR STRESS PERIOD   11   TIME STEP   20
 
 SOLVING FOR HEAD 
                                                   Max.-Head-Change                         Max.-Flux-Residual
  Residual-Control   Outer-Iter.   Inner-Iter.     Column Row Layer    Maximum-Head-Change  Column Row Layer    Maximum-Flux-Residual          L2-NORM 
          0                 1           2             4    7     1       0.6022450514E-01       4    7    1         0.3175916822E+01      0.6380186015E+01
          0                 2           2             4    7     1      -0.5858271847E-02       4    7    1        -0.3175964225E+00      0.6380203168E+00
          0                 3           2             4    7     1       0.3989259130E-03       4    7    1         0.2223171432E-01      0.4466137672E-01
          0                 4           1             4    7     1      -0.1587363846E-04       4    7    1        -0.9092785922E-03      0.1826648657E-02

    ------------------------------------------------
       NWT REQUIRED            4 OUTER ITERATIONS 
       AND A TOTAL OF          7 INNER ITERATIONS.
    ------------------------------------------------

 NO OUTPUT CONTROL FOR STRESS PERIOD   11   TIME STEP   21
 
 SOLVING FOR HEAD 
                                                   Max.-Head-Change                         Max.-Flux-Residual
  Residual-Control   Outer-Iter.   Inner-Iter.     Column Row Layer    Maximum-Head-Change  Column Row Layer    Maximum-Flux-Residual          L2-NORM 
          0                 1           2             4    7     1       0.5933726726E-01       4    7    1         0.3129114141E+01      0.6287380796E+01
          0                 2           2             4    7     1      -0.5771966155E-02       4    7    1        -0.3129160425E+00      0.6287398685E+00
          0                 3           2             4    7     1       0.3930488314E-03       4    7    1         0.2190408866E-01      0.4401175414E-01
          0                 4           1             4    7     1      -0.1563978391E-04       4    7    1        -0.8958786643E-03      0.1800084036E-02

    ------------------------------------------------
       NWT REQUIRED            4 OUTER ITERATIONS 
       AND A TOTAL OF          7 INNER ITERATIONS.
    ------------------------------------------------

 NO OUTPUT CONTROL FOR STRESS PERIOD   11   TIME STEP   22
 
 SOLVING FOR HEAD 
                                                   Max.-Head-Change                         Max.-Flux-Residual
  Residual-Control   Outer-Iter.   Inner-Iter.     Column Row Layer    Maximum-Head-Change  Column Row Layer    Maximum-Flux-Residual          L2-NORM 
          0                 1           2             4    7     1       0.5846361657E-01       4    7    1         0.3083017911E+01      0.6196682358E+01
          0                 2           2             4    7     1      -0.5686982145E-02       4    7    1        -0.3083063089E+00      0.6196700772E+00
          0                 3           2             4    7     1       0.3872617509E-03       4    7    1         0.2158140819E-01      0.4337687365E-01
          0                 4           1             4    7     1      -0.1540951029E-04       4    7    1        -0.8826810199E-03      0.1774116209E-02

    ------------------------------------------------
       NWT REQUIRED            4 OUTER ITERATIONS 
       AND A TOTAL OF          7 INNER ITERATIONS.
    ------------------------------------------------

 NO OUTPUT CONTROL FOR STRESS PERIOD   11   TIME STEP   23
 
 SOLVING FOR HEAD 
                                                   Max.-Head-Change                         Max.-Flux-Residual
  Residual-Control   Outer-Iter.   Inner-Iter.     Column Row Layer    Maximum-Head-Change  Column Row Layer    Maximum-Flux-Residual          L2-NORM 
          0                 1           2             4    7     1       0.5760349821E-01       4    7    1         0.3037626130E+01      0.6108021880E+01
          0                 2           2             4    7     1      -0.5603356517E-02       4    7    1        -0.3037670219E+00      0.6108252838E+00
          0                 3           2             4    7     1       0.3815671710E-03       4    7    1         0.2126365901E-01      0.4275774651E-01
          0                 4           1             4    7     1      -0.1518291787E-04       4    7    1        -0.8696850600E-03      0.1748796365E-02

    ------------------------------------------------
       NWT REQUIRED            4 OUTER ITERATIONS 
       AND A TOTAL OF          7 INNER ITERATIONS.
    ------------------------------------------------

 NO OUTPUT CONTROL FOR STRESS PERIOD   11   TIME STEP   24
 
 SOLVING FOR HEAD 
                                                   Max.-Head-Change                         Max.-Flux-Residual
  Residual-Control   Outer-Iter.   Inner-Iter.     Column Row Layer    Maximum-Head-Change  Column Row Layer    Maximum-Flux-Residual          L2-NORM 
          0                 1           2             4    7     1       0.5675663739E-01       4    7    1         0.2992933714E+01      0.6021311356E+01
          0                 2           2             4    7     1      -0.5534396543E-02       4    7    1        -0.3001823891E+00      0.6022362293E+00
          0                 3           2             4    7     1       0.3768712107E-03       4    7    1         0.2101273173E-01      0.4215652071E-01
          0                 4           1             4    7     1      -0.1499606129E-04       4    7    1        -0.8594221190E-03      0.1724202886E-02

    ------------------------------------------------
       NWT REQUIRED            4 OUTER ITERATIONS 
       AND A TOTAL OF          7 INNER ITERATIONS.
    ------------------------------------------------

 NO OUTPUT CONTROL FOR STRESS PERIOD   11   TIME STEP   25
 
 SOLVING FOR HEAD 
                                                   Max.-Head-Change                         Max.-Flux-Residual
  Residual-Control   Outer-Iter.   Inner-Iter.     Column Row Layer    Maximum-Head-Change  Column Row Layer    Maximum-Flux-Residual          L2-NORM 
          0                 1           2             4    7     1       0.5588878182E-01       4    7    1         0.2948215675E+01      0.5936389656E+01
          0                 2           2             4    7     1      -0.5436520822E-02       4    7    1        -0.2948260853E+00      0.5936400497E+00
          0                 3           2             4    7     1       0.3702062647E-03       4    7    1         0.2063779215E-01      0.4155478753E-01
          0                 4           1             4    7     1      -0.1473085657E-04       4    7    1        -0.8440870656E-03      0.1699594397E-02

    ------------------------------------------------
       NWT REQUIRED            4 OUTER ITERATIONS 
       AND A TOTAL OF          7 INNER ITERATIONS.
    ------------------------------------------------

 NO OUTPUT CONTROL FOR STRESS PERIOD   11   TIME STEP   26
 
 SOLVING FOR HEAD 
                                                   Max.-Head-Change                         Max.-Flux-Residual
  Residual-Control   Outer-Iter.   Inner-Iter.     Column Row Layer    Maximum-Head-Change  Column Row Layer    Maximum-Flux-Residual          L2-NORM 
          0                 1           2             4    7     1       0.5504950300E-01       4    7    1         0.2903841474E+01      0.5853278269E+01
          0                 2           2             4    7     1      -0.5354880108E-02       4    7    1        -0.2903885443E+00      0.5853298017E+00
          0                 3           2             4    7     1       0.3646468521E-03       4    7    1         0.2032716528E-01      0.4097307518E-01
          0                 4           1             4    7     1      -0.1450964223E-04       4    7    1        -0.8313824069E-03      0.1675800668E-02

    ------------------------------------------------
       NWT REQUIRED            4 OUTER ITERATIONS 
       AND A TOTAL OF          7 INNER ITERATIONS.
    ------------------------------------------------

 NO OUTPUT CONTROL FOR STRESS PERIOD   11   TIME STEP   27
 
 SOLVING FOR HEAD 
                                                   Max.-Head-Change                         Max.-Flux-Residual
  Residual-Control   Outer-Iter.   Inner-Iter.     Column Row Layer    Maximum-Head-Change  Column Row Layer    Maximum-Flux-Residual          L2-NORM 
          0                 1           2             4    7     1       0.5422490360E-01       4    7    1         0.2860238993E+01      0.5771965325E+01
          0                 2           2             4    7     1      -0.5274667343E-02       4    7    1        -0.2860281778E+00      0.5771985194E+00
          0                 3           2             4    7     1       0.3591846770E-03       4    7    1         0.2002194062E-01      0.4040388978E-01
          0                 4           1             4    7     1      -0.1429229721E-04       4    7    1        -0.8188986967E-03      0.1652520535E-02

    ------------------------------------------------
       NWT REQUIRED            4 OUTER ITERATIONS 
       AND A TOTAL OF          7 INNER ITERATIONS.
    ------------------------------------------------

 NO OUTPUT CONTROL FOR STRESS PERIOD   11   TIME STEP   28
 
 SOLVING FOR HEAD 
                                                   Max.-Head-Change                         Max.-Flux-Residual
  Residual-Control   Outer-Iter.   Inner-Iter.     Column Row Layer    Maximum-Head-Change  Column Row Layer    Maximum-Flux-Residual          L2-NORM 
          0                 1           2             4    7     1       0.5341477181E-01       4    7    1         0.2817397595E+01      0.5692394293E+01
          0                 2           2             4    7     1      -0.5195861923E-02       4    7    1        -0.2817439226E+00      0.5692413898E+00
          0                 3           2             4    7     1       0.3538183366E-03       4    7    1         0.1972204372E-01      0.3984688968E-01
          0                 4           1             4    7     1      -0.1407876555E-04       4    7    1        -0.8066328955E-03      0.1629739993E-02

    ------------------------------------------------
       NWT REQUIRED            4 OUTER ITERATIONS 
       AND A TOTAL OF          7 INNER ITERATIONS.
    ------------------------------------------------

 NO OUTPUT CONTROL FOR STRESS PERIOD   11   TIME STEP   29
 
 SOLVING FOR HEAD 
                                                   Max.-Head-Change                         Max.-Flux-Residual
  Residual-Control   Outer-Iter.   Inner-Iter.     Column Row Layer    Maximum-Head-Change  Column Row Layer    Maximum-Flux-Residual          L2-NORM 
          0                 1           2             4    7     1       0.5261889898E-01       4    7    1         0.2775306300E+01      0.5614518861E+01
          0                 2           2             4    7     1      -0.5118443549E-02       4    7    1        -0.2775346804E+00      0.5614538215E+00
          0                 3           2             4    7     1       0.3485464483E-03       4    7    1         0.1942739770E-01      0.3930176508E-01
          0                 4           1             4    7     1      -0.1386899190E-04       4    7    1        -0.7945818443E-03      0.1607447304E-02

    ------------------------------------------------
       NWT REQUIRED            4 OUTER ITERATIONS 
       AND A TOTAL OF          7 INNER ITERATIONS.
    ------------------------------------------------

 NO OUTPUT CONTROL FOR STRESS PERIOD   11   TIME STEP   30



 STREAM LISTING     PERIOD     11   STEP       30

 LAYER ROW COL. STREAM  RCH.  FLOW INTO     FLOW TO   FLOW OUT OF   OVRLND.     DIRECT     STREAM       STREAM     STREAM     STREAM   STREAMBED  STREAMBED
                SEG.NO.  NO.  STRM. RCH.    AQUIFER    STRM. RCH.    RUNOFF     PRECIP       ET          HEAD       DEPTH      WIDTH   CONDCTNC.   GRADIENT

   1    1    1     1     1    1.3125E+01  1.7336E-01   1.2952E+01  0.000E+00  0.000E+00  0.000E+00  1.09402E+03  9.718E-01  9.699E+00  4.365E-02  1.324E+00
   1    2    2     1     2    1.2952E+01  2.6707E-01   1.2684E+01  0.000E+00  0.000E+00  0.000E+00  1.08903E+03  9.671E-01  9.617E+00  6.732E-02  1.322E+00
   1    3    3     1     3    1.2684E+01  2.2641E-01   1.2458E+01  0.000E+00  0.000E+00  0.000E+00  1.08338E+03  9.616E-01  9.525E+00  5.715E-02  1.321E+00
   1    3    4     1     4    1.2458E+01  2.0737E-01   1.2251E+01  0.000E+00  0.000E+00  0.000E+00  1.07836E+03  9.568E-01  9.443E+00  5.241E-02  1.319E+00
   1    4    5     2     1    1.0251E+01  2.8870E-01   9.9620E+00  0.000E+00  0.000E+00  0.000E+00  1.07264E+03  7.013E-01  1.200E+01  7.800E-02  1.234E+00
   1    5    6     2     2    9.9620E+00  2.2144E-01   9.7406E+00  0.000E+00  0.000E+00  0.000E+00  1.06720E+03  6.906E-01  1.200E+01  6.000E-02  1.230E+00
   1    6    6     2     3    9.7406E+00  2.2088E-01   9.5197E+00  0.000E+00  0.000E+00  0.000E+00  1.06247E+03  6.813E-01  1.200E+01  6.000E-02  1.227E+00
   1    7    6     2     4    9.5197E+00  2.2031E-01   9.2994E+00  0.000E+00  0.000E+00  0.000E+00  1.05775E+03  6.719E-01  1.200E+01  6.000E-02  1.224E+00
   1    8    6     2     5    9.2994E+00  2.1974E-01   9.0796E+00  0.000E+00  0.000E+00  0.000E+00  1.05302E+03  6.624E-01  1.200E+01  6.000E-02  1.221E+00
   1    3    5     3     1    2.0000E+00  2.8252E-01   1.7175E+00  0.000E+00  0.000E+00  0.000E+00  1.07555E+03  1.909E+00  9.636E+00  7.227E-02  1.955E+00
   1    3    6     3     2    1.7175E+00  2.4905E-01   1.4684E+00  0.000E+00  0.000E+00  0.000E+00  1.07264E+03  1.727E+00  8.909E+00  6.682E-02  1.864E+00
   1    3    7     3     3    1.4684E+00  1.9718E-01   1.2712E+00  0.000E+00  0.000E+00  0.000E+00  1.06987E+03  1.555E+00  8.218E+00  5.547E-02  1.777E+00
   1    4    8     3     4    1.2712E+00  2.2567E-01   1.0456E+00  0.000E+00  0.000E+00  0.000E+00  1.06682E+03  1.364E+00  7.455E+00  6.709E-02  1.682E+00
   1    5    8     3     5    1.0456E+00  1.5790E-01   8.8768E-01  0.000E+00  0.000E+00  0.000E+00  1.06362E+03  1.164E+00  6.655E+00  4.991E-02  1.582E+00
   1    6    8     3     6    8.8768E-01  5.5980E-02   8.3170E-01  0.000E+00  0.000E+00  0.000E+00  1.06158E+03  1.036E+00  6.145E+00  1.844E-02  1.518E+00
   1    5   10     4     1    1.0000E+01  9.0919E-02   9.9091E+00  0.000E+00  0.000E+00  0.000E+00  1.07836E+03  6.368E-01  1.000E+01  2.500E-02  1.212E+00
   1    5    9     4     2    9.9091E+00  1.8158E-01   9.7275E+00  0.000E+00  0.000E+00  0.000E+00  1.07154E+03  6.315E-01  1.000E+01  5.000E-02  1.211E+00
   1    6    8     4     3    9.7275E+00  1.2689E-01   9.6006E+00  0.000E+00  0.000E+00  0.000E+00  1.06381E+03  6.256E-01  1.000E+01  3.500E-02  1.209E+00
   1    6    8     5     1    1.0432E+01  2.2686E-01   1.0205E+01  0.000E+00  0.000E+00  0.000E+00  1.05868E+03  6.790E-01  1.542E+01  6.166E-02  1.226E+00
   1    7    7     5     2    1.0205E+01  2.7894E-01   9.9265E+00  0.000E+00  0.000E+00  0.000E+00  1.05417E+03  6.732E-01  1.519E+01  7.594E-02  1.224E+00
   1    8    7     5     3    9.9265E+00  1.9221E-01   9.7343E+00  0.000E+00  0.000E+00  0.000E+00  1.04992E+03  6.676E-01  1.497E+01  5.241E-02  1.223E+00
   1    8    6     5     4    9.7343E+00  1.3577E-01   9.5985E+00  0.000E+00  0.000E+00  0.000E+00  1.04691E+03  6.637E-01  1.482E+01  3.706E-02  1.221E+00
   1    9    6     6     1    1.8678E+01  2.4127E-01   1.8437E+01  0.000E+00  0.000E+00  0.000E+00  1.04375E+03  1.021E+00  1.200E+01  6.000E-02  1.340E+00
   1   10    7     6     2    1.8437E+01  2.4079E-01   1.8196E+01  0.000E+00  0.000E+00  0.000E+00  1.03919E+03  1.013E+00  1.200E+01  6.000E-02  1.338E+00
   1   11    7     6     3    1.8196E+01  2.4031E-01   1.7956E+01  0.000E+00  0.000E+00  0.000E+00  1.03464E+03  1.005E+00  1.200E+01  6.000E-02  1.335E+00
   1   12    7     6     4    1.7956E+01  2.3983E-01   1.7716E+01  0.000E+00  0.000E+00  0.000E+00  1.03009E+03  9.971E-01  1.200E+01  6.000E-02  1.332E+00
   1   13    7     6     5    1.7716E+01  1.5415E-03   1.7714E+01  0.000E+00  0.000E+00  0.000E+00  1.02690E+03  9.931E-01  1.200E+01  2.400E-02  2.141E-02
   1   14    9     7     1    1.5000E+02  1.3690E+00   1.4863E+02  0.000E+00  0.000E+00  0.000E+00  1.03987E+03  2.288E+00  5.529E+01  5.593E-01  8.159E-01
   1   13    8     7     2    1.4863E+02  1.9193E+00   1.4671E+02  0.000E+00  0.000E+00  0.000E+00  1.03478E+03  2.279E+00  5.526E+01  6.148E-01  1.041E+00
   1   13    7     7     3    1.4671E+02  1.5920E+00   1.4512E+02  0.000E+00  0.000E+00  0.000E+00  1.02969E+03  2.270E+00  5.521E+01  5.584E-01  9.503E-01
   1   13    6     8     1    1.6283E+02  9.9741E-01   1.6184E+02  0.000E+00  0.000E+00  0.000E+00  1.02478E+03  2.902E+00  4.207E+01  4.287E-01  7.755E-01
   1   13    5     8     2    1.6184E+02  2.4950E-01   1.6159E+02  0.000E+00  0.000E+00  0.000E+00  1.01852E+03  2.897E+00  4.201E+01  4.281E-01  1.943E-01
   1   13    4     8     3    1.6159E+02 -2.1775E+00   1.6376E+02  0.000E+00  0.000E+00  0.000E+00  1.01228E+03  2.904E+00  4.211E+01  4.291E+00 -1.692E-01
   1   13    3     8     4    1.6376E+02 -3.5186E+00   1.6728E+02  0.000E+00  0.000E+00  0.000E+00  1.00605E+03  2.923E+00  4.238E+01  4.319E+00 -2.716E-01
   1   13    2     8     5    1.6728E+02 -2.5287E+00   1.6981E+02  0.000E+00  0.000E+00  0.000E+00  9.99818E+02  2.943E+00  4.267E+01  4.348E+00 -1.939E-01
   1   13    1     8     6    1.6981E+02 -1.9491E+00   1.7176E+02  0.000E+00  0.000E+00  0.000E+00  9.94832E+02  2.957E+00  4.288E+01  2.622E+00 -2.478E-01
   1    8    6     9     1    0.0000E+00  0.0000E+00   0.0000E+00  0.000E+00  0.000E+00  0.000E+00  1.07875E+03  0.000E+00  4.000E+00  0.000E+00  1.000E+00
   1    8    5     9     2    0.0000E+00  0.0000E+00   0.0000E+00  0.000E+00  0.000E+00  0.000E+00  1.07825E+03  0.000E+00  4.000E+00  0.000E+00  1.000E+00





UNSATURATED ZONE PACKAGE VOLUMETRIC BUDGET FOR  TIME STEP    30 STRESS PERIOD   11
  ------------------------------------------------------------------------------



     CUMULATIVE VOLUMES      L**3       RATES FOR THIS TIME STEP      L**3/T
     ------------------                 ------------------------

           IN:                                      IN:
           ---                                      ---
        INFILTRATION =   666978515.0499          INFILTRATION =           0.8475

          OUT:                                     OUT:
          ----                                     ----
              UZF ET =   428255385.4971                UZF ET =           0.8475
        UZF RECHARGE =       73224.0000          UZF RECHARGE =       0.0000E+00

            IN - OUT =   238649905.5528              IN - OUT =       0.0000E+00

          STORAGE:                                 STORAGE:
          --------                                 --------
      STORAGE CHANGE =   238650254.0332        STORAGE CHANGE =      -4.2512E-13

 PERCENT DISCREPANCY IS DIFFERENCE BETWEEN IN-OUT MINUS CHANGE IN STORAGE
 DIVIDED BY THE AVERAGE OF IN AND OUT TIMES 100

 PERCENT DISCREPANCY =          -0.00     PERCENT DISCREPANCY =           0.00






1
  VOLUMETRIC BUDGET FOR AGRICULTURAL FIELDS AT  END OF TIME STEP   30, STRESS PERIOD  11
  ------------------------------------------------------------------------------

     CUMULATIVE VOLUMES      L**3       RATES FOR THIS TIME STEP      L**3/T
     ------------------                 ------------------------

           IN:                                      IN:
           ---                                      ---
               AG WELLS  =   429841792.0000                 AG WELLS  =           0.0000
      DIVERSION SEGMENTS =   214830320.0000        DIVERSION SEGMENTS =           0.0000
       IRRIGATION PONDS  =           0.0000         IRRIGATION PONDS  =           0.0000
           GW IRRIGATION =           0.0000             GW IRRIGATION =           0.0000
           SW IRRIGATION =           0.0000             SW IRRIGATION =           0.0000
        SYSTEM LOSSES GW =           0.0000          SYSTEM LOSSES GW =           0.0000
        SYSTEM LOSSES SW =           0.0000          SYSTEM LOSSES SW =           0.0000

                TOTAL IN =   644672128.0000                  TOTAL IN =           0.0000

          OUT:                                     OUT:
          ----                                     ----
               AG WELLS  =           0.0000                 AG WELLS  =           0.0000
      DIVERSION SEGMENTS =           0.0000        DIVERSION SEGMENTS =           0.0000
       IRRIGATION PONDS  =           0.0000         IRRIGATION PONDS  =           0.0000
           GW IRRIGATION =   429841792.0000             GW IRRIGATION =           0.0000
           SW IRRIGATION =   214834512.0000             SW IRRIGATION =           0.0000
        SYSTEM LOSSES GW =           0.0000          SYSTEM LOSSES GW =           0.0000
        SYSTEM LOSSES SW =           0.0000          SYSTEM LOSSES SW =           0.0000

               TOTAL OUT =   644676288.0000                 TOTAL OUT =           0.0000

                IN - OUT =       -4160.0000                  IN - OUT =           0.0000

     PERCENT DISCREPANCY =          -0.00         PERCENT DISCREPANCY =           0.00



1
  VOLUMETRIC BUDGET FOR ENTIRE MODEL AT END OF TIME STEP   30, STRESS PERIOD  11
  ------------------------------------------------------------------------------

     CUMULATIVE VOLUMES      L**3       RATES FOR THIS TIME STEP      L**3/T
     ------------------                 ------------------------

           IN:                                      IN:
           ---                                      ---
             STORAGE     =   606068416.0000               STORAGE     =          13.3252
       CONSTANT HEAD     =           0.0000         CONSTANT HEAD     =           0.0000
     HEAD DEP BOUNDS     =     7597064.0000       HEAD DEP BOUNDS     =           0.2880
      STREAM LEAKAGE     =   311499808.0000        STREAM LEAKAGE     =          11.5377
        UZF RECHARGE     =       73223.9531          UZF RECHARGE     =           0.0000
               GW ET     =           0.0000                 GW ET     =           0.0000
     SURFACE LEAKAGE     =           0.0000       SURFACE LEAKAGE     =           0.0000
           AG WELLS      =           0.0000             AG WELLS      =           0.0000

                TOTAL IN =   925238528.0000                  TOTAL IN =          25.1510

          OUT:                                     OUT:
          ----                                     ----
             STORAGE     =   215266736.0000               STORAGE     =          14.6891
       CONSTANT HEAD     =           0.0000         CONSTANT HEAD     =           0.0000
     HEAD DEP BOUNDS     =     7600734.0000       HEAD DEP BOUNDS     =           0.2879
      STREAM LEAKAGE     =   272531584.0000        STREAM LEAKAGE     =          10.1740
        UZF RECHARGE     =           0.0000          UZF RECHARGE     =           0.0000
               GW ET     =           0.0000                 GW ET     =           0.0000
     SURFACE LEAKAGE     =           0.0000       SURFACE LEAKAGE     =           0.0000
           AG WELLS      =   429841792.0000             AG WELLS      =           0.0000

               TOTAL OUT =   925240832.0000                 TOTAL OUT =          25.1509

                IN - OUT =       -2304.0000                  IN - OUT =       1.1444E-05

     PERCENT DISCREPANCY =          -0.00         PERCENT DISCREPANCY =           0.00






         TIME SUMMARY AT END OF TIME STEP   30 IN STRESS PERIOD   11
                    SECONDS     MINUTES      HOURS       DAYS        YEARS
                    -----------------------------------------------------------
   TIME STEP LENGTH  87667.      1461.1      24.352      1.0147     2.77799E-03
 STRESS PERIOD TIME 2.63000E+06  43833.      730.56      30.440     8.33397E-02
         TOTAL TIME 2.63864E+07 4.39773E+05  7329.5      305.40     0.83613    
1
1
                            STRESS PERIOD NO.   12, LENGTH =   2630000.    
                            -----------------------------------------------

                              NUMBER OF TIME STEPS =    30

                               MULTIPLIER FOR DELT =     1.000

                            INITIAL TIME STEP SIZE =   87666.66    

 REUSING NON-PARAMETER GHB CELLS FROM LAST STRESS PERIOD

      2 GHB CELLS

 REUSING STREAM SEGMENT DATA FROM LAST STRESS PERIOD



            AREAL INFILTRATION RATE
 READING ON UNIT   19 WITH FORMAT: (FREE)              

            1           2           3           4           5           6           7           8           9          10
 ........................................................................................................................
   1   1.0000E-10  2.0000E-10   0.000       0.000       0.000       0.000       0.000       0.000       0.000       0.000    
   2   2.0000E-10  1.0000E-10  2.0000E-10   0.000       0.000      8.0000E-10  8.0000E-10  5.0000E-10   0.000       0.000    
   3    0.000      5.0000E-10  1.0000E-10  1.0000E-10  8.0000E-10  8.0000E-10  5.0000E-10  5.0000E-10   0.000       0.000    
   4   8.0000E-10  5.0000E-10  1.0000E-10  1.0000E-10  1.0000E-10  1.0000E-10  1.0000E-10  1.0000E-10  2.0000E-10   0.000    
   5   8.0000E-10  5.0000E-10  1.0000E-10  1.0000E-10  1.0000E-10  1.0000E-10  1.0000E-10  1.0000E-10  1.0000E-10  1.0000E-10
   6   8.0000E-10  5.0000E-10  5.0000E-10  2.0000E-10  2.0000E-10  1.0000E-10  1.0000E-10  1.0000E-10  1.0000E-10  5.0000E-10
   7   8.0000E-10  5.0000E-10  5.0000E-10  2.0000E-10  2.0000E-10  1.0000E-10  1.0000E-10  2.0000E-10  2.0000E-10   0.000    
   8    0.000      5.0000E-10  5.0000E-10  2.0000E-10  2.0000E-10  1.0000E-10  1.0000E-10  2.0000E-10  5.0000E-10   0.000    
   9    0.000      5.0000E-10  5.0000E-10  2.0000E-10  2.0000E-10  1.0000E-10  1.0000E-10  2.0000E-10  5.0000E-10   0.000    
  10    0.000      5.0000E-10  5.0000E-10  2.0000E-10  2.0000E-10  1.0000E-10  1.0000E-10  2.0000E-10  5.0000E-10  8.0000E-10
  11    0.000      1.0000E-10  1.0000E-10  1.0000E-10  1.0000E-10  1.0000E-10  1.0000E-10  2.0000E-10  5.0000E-10   0.000    
  12   1.0000E-10  1.0000E-10  1.0000E-10  1.0000E-10  1.0000E-10  1.0000E-10  1.0000E-10  1.0000E-10  2.0000E-10   0.000    
  13   1.0000E-10  1.0000E-10  2.0000E-10  2.0000E-10  2.0000E-10  2.0000E-10  2.0000E-10  1.0000E-10  1.0000E-10   0.000    
  14    0.000      2.0000E-10  5.0000E-10  5.0000E-10  5.0000E-10  5.0000E-10  5.0000E-10  2.0000E-10  1.0000E-10   0.000    
  15    0.000       0.000      8.0000E-10  8.0000E-10  8.0000E-10  8.0000E-10   0.000       0.000       0.000       0.000    

                  ET RATE =  5.000000E-10

 USING ET EXTINCTION DEPTH FROM PREVIOUS STRESS PERIOD. CURRENT PERIOD IS:      12

 USING EXTINCTION WATER CONTENT FROM PREVIOUS STRESS PERIOD. CURRENT PERIOD IS:      12

 USING AIR ENTRY PRESSURE FROM PREVIOUS STRESS PERIOD. CURRENT PERIOD IS:      12

 USING ROOT PRESSURE HEAD FROM PREVIOUS STRESS PERIOD. CURRENT PERIOD IS:      12

 USING ROOT ACTIVITY FROM PREVIOUS STRESS PERIOD. CURRENT PERIOD IS:      12

 PROCESSING AG STRESS PERIOD DATA

 READING AG STRESS PERIOD DATA

 READING IRRIGATION SEGMENT

 READING IRRIGATION WELL

 READING SUPPLEMENTAL WELL

 NO IRRPOND OR REUSING IRRPOND DATA FROM LAST STRESS PERIOD

 END PROCESSING AG STRESS PERIOD DATA OPTIONS
 
 SOLVING FOR HEAD 
                                                   Max.-Head-Change                         Max.-Flux-Residual
  Residual-Control   Outer-Iter.   Inner-Iter.     Column Row Layer    Maximum-Head-Change  Column Row Layer    Maximum-Flux-Residual          L2-NORM 
          0                 1           2             4    7     1       0.5183689957E-01       4    7    1         0.2733947013E+01      0.5543425775E+01
          0                 2           2             4    7     1      -0.5042374722E-02       4    7    1        -0.2733986419E+00      0.5543731252E+00
          0                 3           2             4    7     1       0.3433664590E-03       4    7    1         0.1913787592E-01      0.3880781917E-01
          0                 4           1             4    7     1      -0.1366287516E-04       4    7    1        -0.7827403770E-03      0.1587537469E-02

    ------------------------------------------------
       NWT REQUIRED            4 OUTER ITERATIONS 
       AND A TOTAL OF          7 INNER ITERATIONS.
    ------------------------------------------------

 NO OUTPUT CONTROL FOR STRESS PERIOD   12   TIME STEP    1
 
 SOLVING FOR HEAD 
                                                   Max.-Head-Change                         Max.-Flux-Residual
  Residual-Control   Outer-Iter.   Inner-Iter.     Column Row Layer    Maximum-Head-Change  Column Row Layer    Maximum-Flux-Residual          L2-NORM 
          0                 1           2             4    7     1       0.5106882382E-01       4    7    1         0.2693321574E+01      0.5469964565E+01
          0                 2           2             4    7     1      -0.4967660329E-02       4    7    1        -0.2693359909E+00      0.5469917238E+00
          0                 3           2             4    7     1       0.3382787010E-03       4    7    1         0.1885349124E-01      0.3828880403E-01
          0                 4           1             4    7     1      -0.1346042845E-04       4    7    1        -0.7711090288E-03      0.1565978815E-02

    ------------------------------------------------
       NWT REQUIRED            4 OUTER ITERATIONS 
       AND A TOTAL OF          7 INNER ITERATIONS.
    ------------------------------------------------

 NO OUTPUT CONTROL FOR STRESS PERIOD   12   TIME STEP    2
 
 SOLVING FOR HEAD 
                                                   Max.-Head-Change                         Max.-Flux-Residual
  Residual-Control   Outer-Iter.   Inner-Iter.     Column Row Layer    Maximum-Head-Change  Column Row Layer    Maximum-Flux-Residual          L2-NORM 
          0                 1           2             4    7     1       0.5031444745E-01       4    7    1         0.2653418038E+01      0.5396677565E+01
          0                 2           2             4    7     1      -0.4894278552E-02       4    7    1        -0.2653455329E+00      0.5396636906E+00
          0                 3           2             4    7     1       0.3332816893E-03       4    7    1         0.1857416005E-01      0.3777591705E-01
          0                 4           1             4    7     1      -0.1326159273E-04       4    7    1        -0.7596843634E-03      0.1544988989E-02

    ------------------------------------------------
       NWT REQUIRED            4 OUTER ITERATIONS 
       AND A TOTAL OF          7 INNER ITERATIONS.
    ------------------------------------------------

 NO OUTPUT CONTROL FOR STRESS PERIOD   12   TIME STEP    3
 
 SOLVING FOR HEAD 
                                                   Max.-Head-Change                         Max.-Flux-Residual
  Residual-Control   Outer-Iter.   Inner-Iter.     Column Row Layer    Maximum-Head-Change  Column Row Layer    Maximum-Flux-Residual          L2-NORM 
          0                 1           2             4    7     1       0.4957340784E-01       4    7    1         0.2614217497E+01      0.5324905819E+01
          0                 2           2             4    7     1      -0.4822194114E-02       4    7    1        -0.2614253772E+00      0.5324870115E+00
          0                 3           2             4    7     1       0.3283730206E-03       4    7    1         0.1829974998E-01      0.3727360082E-01
          0                 4           1             4    7     1      -0.1306627230E-04       4    7    1        -0.7484609760E-03      0.1524479989E-02

    ------------------------------------------------
       NWT REQUIRED            4 OUTER ITERATIONS 
       AND A TOTAL OF          7 INNER ITERATIONS.
    ------------------------------------------------

 NO OUTPUT CONTROL FOR STRESS PERIOD   12   TIME STEP    4
 
 SOLVING FOR HEAD 
                                                   Max.-Head-Change                         Max.-Flux-Residual
  Residual-Control   Outer-Iter.   Inner-Iter.     Column Row Layer    Maximum-Head-Change  Column Row Layer    Maximum-Flux-Residual          L2-NORM 
          0                 1           2             4    7     1       0.4884575112E-01       4    7    1         0.2575722986E+01      0.5254613640E+01
          0                 2           2             4    7     1      -0.4751411508E-02       4    7    1        -0.2575758270E+00      0.5254582764E+00
          0                 3           2             4    7     1       0.3235530017E-03       4    7    1         0.1803028229E-01      0.3678165257E-01
          0                 4           1             4    7     1      -0.1287447905E-04       4    7    1        -0.7374397223E-03      0.1504347561E-02

    ------------------------------------------------
       NWT REQUIRED            4 OUTER ITERATIONS 
       AND A TOTAL OF          7 INNER ITERATIONS.
    ------------------------------------------------

 NO OUTPUT CONTROL FOR STRESS PERIOD   12   TIME STEP    5
 
 SOLVING FOR HEAD 
                                                   Max.-Head-Change                         Max.-Flux-Residual
  Residual-Control   Outer-Iter.   Inner-Iter.     Column Row Layer    Maximum-Head-Change  Column Row Layer    Maximum-Flux-Residual          L2-NORM 
          0                 1           2             4    7     1       0.4813097683E-01       4    7    1         0.2537907783E+01      0.5185752947E+01
          0                 2           2             4    7     1      -0.4681882048E-02       4    7    1        -0.2537942103E+00      0.5185726046E+00
          0                 3           2             4    7     1       0.3188183174E-03       4    7    1         0.1776556993E-01      0.3629968299E-01
          0                 4           1             4    7     1      -0.1268608159E-04       4    7    1        -0.7266129774E-03      0.1484639105E-02

    ------------------------------------------------
       NWT REQUIRED            4 OUTER ITERATIONS 
       AND A TOTAL OF          7 INNER ITERATIONS.
    ------------------------------------------------

 NO OUTPUT CONTROL FOR STRESS PERIOD   12   TIME STEP    6
 
 SOLVING FOR HEAD 
                                                   Max.-Head-Change                         Max.-Flux-Residual
  Residual-Control   Outer-Iter.   Inner-Iter.     Column Row Layer    Maximum-Head-Change  Column Row Layer    Maximum-Flux-Residual          L2-NORM 
          0                 1           2             4    7     1       0.4742913154E-01       4    7    1         0.2500775059E+01      0.5118289711E+01
          0                 2           2             4    7     1      -0.4613610264E-02       4    7    1        -0.2500808439E+00      0.5118265878E+00
          0                 3           2             4    7     1       0.3141692752E-03       4    7    1         0.1750563504E-01      0.3582750571E-01
          0                 4           1             4    7     1      -0.1250109157E-04       4    7    1        -0.7159816159E-03      0.1465315477E-02

    ------------------------------------------------
       NWT REQUIRED            4 OUTER ITERATIONS 
       AND A TOTAL OF          7 INNER ITERATIONS.
    ------------------------------------------------

 NO OUTPUT CONTROL FOR STRESS PERIOD   12   TIME STEP    7
 
 SOLVING FOR HEAD 
                                                   Max.-Head-Change                         Max.-Flux-Residual
  Residual-Control   Outer-Iter.   Inner-Iter.     Column Row Layer    Maximum-Head-Change  Column Row Layer    Maximum-Flux-Residual          L2-NORM 
          0                 1           2             4    7     1       0.4673998018E-01       4    7    1         0.2464312668E+01      0.5052177933E+01
          0                 2           2             4    7     1      -0.4546573290E-02       4    7    1        -0.2464345135E+00      0.5052157288E+00
          0                 3           2             4    7     1       0.3096043185E-03       4    7    1         0.1725039267E-01      0.3536476763E-01
          0                 4           1             4    7     1      -0.1231944727E-04       4    7    1        -0.7055421720E-03      0.1446392526E-02

    ------------------------------------------------
       NWT REQUIRED            4 OUTER ITERATIONS 
       AND A TOTAL OF          7 INNER ITERATIONS.
    ------------------------------------------------

 NO OUTPUT CONTROL FOR STRESS PERIOD   12   TIME STEP    8
 
 SOLVING FOR HEAD 
                                                   Max.-Head-Change                         Max.-Flux-Residual
  Residual-Control   Outer-Iter.   Inner-Iter.     Column Row Layer    Maximum-Head-Change  Column Row Layer    Maximum-Flux-Residual          L2-NORM 
          0                 1           2             4    7     1       0.4606315710E-01       4    7    1         0.2428501142E+01      0.4987376351E+01
          0                 2           2             4    7     1      -0.4480735558E-02       4    7    1        -0.2428532719E+00      0.4987358361E+00
          0                 3           2             4    7     1       0.3051210261E-03       4    7    1         0.1699970649E-01      0.3491119904E-01
          0                 4           1             4    7     1      -0.1214105337E-04       4    7    1        -0.6952891063E-03      0.1427853174E-02

    ------------------------------------------------
       NWT REQUIRED            4 OUTER ITERATIONS 
       AND A TOTAL OF          7 INNER ITERATIONS.
    ------------------------------------------------

 NO OUTPUT CONTROL FOR STRESS PERIOD   12   TIME STEP    9
 
 SOLVING FOR HEAD 
                                                   Max.-Head-Change                         Max.-Flux-Residual
  Residual-Control   Outer-Iter.   Inner-Iter.     Column Row Layer    Maximum-Head-Change  Column Row Layer    Maximum-Flux-Residual          L2-NORM 
          0                 1           2             4    7     1       0.4539857090E-01       4    7    1         0.2393336086E+01      0.4923857586E+01
          0                 2           2             4    7     1      -0.4416088175E-02       4    7    1        -0.2393366798E+00      0.4923841922E+00
          0                 3           2             4    7     1       0.3007187910E-03       4    7    1         0.1675354575E-01      0.3446661213E-01
          0                 4           1             4    7     1      -0.1196588374E-04       4    7    1        -0.6852210940E-03      0.1409667407E-02

    ------------------------------------------------
       NWT REQUIRED            4 OUTER ITERATIONS 
       AND A TOTAL OF          7 INNER ITERATIONS.
    ------------------------------------------------

 NO OUTPUT CONTROL FOR STRESS PERIOD   12   TIME STEP   10
 
 SOLVING FOR HEAD 
                                                   Max.-Head-Change                         Max.-Flux-Residual
  Residual-Control   Outer-Iter.   Inner-Iter.     Column Row Layer    Maximum-Head-Change  Column Row Layer    Maximum-Flux-Residual          L2-NORM 
          0                 1           2             4    7     1       0.4474598801E-01       4    7    1         0.2358805480E+01      0.4861578851E+01
          0                 2           2             4    7     1      -0.4352608422E-02       4    7    1        -0.2358835351E+00      0.4861565080E+00
          0                 3           2             4    7     1       0.2963960677E-03       4    7    1         0.1651182632E-01      0.3403068785E-01
          0                 4           1             4    7     1      -0.1179387896E-04       4    7    1        -0.6753347734E-03      0.1391823513E-02

    ------------------------------------------------
       NWT REQUIRED            4 OUTER ITERATIONS 
       AND A TOTAL OF          7 INNER ITERATIONS.
    ------------------------------------------------

 NO OUTPUT CONTROL FOR STRESS PERIOD   12   TIME STEP   11
 
 SOLVING FOR HEAD 
                                                   Max.-Head-Change                         Max.-Flux-Residual
  Residual-Control   Outer-Iter.   Inner-Iter.     Column Row Layer    Maximum-Head-Change  Column Row Layer    Maximum-Flux-Residual          L2-NORM 
          0                 1           2             4    7     1       0.4410531495E-01       4    7    1         0.2324904499E+01      0.4800510840E+01
          0                 2           2             4    7     1      -0.4290287205E-02       4    7    1        -0.2324933552E+00      0.4800498700E+00
          0                 3           2             4    7     1       0.2921522356E-03       4    7    1         0.1627451441E-01      0.3360324533E-01
          0                 4           1             4    7     1      -0.1162501279E-04       4    7    1        -0.6656286969E-03      0.1374371319E-02

    ------------------------------------------------
       NWT REQUIRED            4 OUTER ITERATIONS 
       AND A TOTAL OF          7 INNER ITERATIONS.
    ------------------------------------------------

 NO OUTPUT CONTROL FOR STRESS PERIOD   12   TIME STEP   12
 
 SOLVING FOR HEAD 
                                                   Max.-Head-Change                         Max.-Flux-Residual
  Residual-Control   Outer-Iter.   Inner-Iter.     Column Row Layer    Maximum-Head-Change  Column Row Layer    Maximum-Flux-Residual          L2-NORM 
          0                 1           2             4    7     1       0.4347618507E-01       4    7    1         0.2291613728E+01      0.4740619856E+01
          0                 2           2             4    7     1      -0.4229088857E-02       4    7    1        -0.2291641986E+00      0.4740609151E+00
          0                 3           2             4    7     1       0.2879848663E-03       4    7    1         0.1604147409E-01      0.3318403935E-01
          0                 4           1             4    7     1      -0.1145918921E-04       4    7    1        -0.6560973293E-03      0.1357212072E-02

    ------------------------------------------------
       NWT REQUIRED            4 OUTER ITERATIONS 
       AND A TOTAL OF          7 INNER ITERATIONS.
    ------------------------------------------------

 NO OUTPUT CONTROL FOR STRESS PERIOD   12   TIME STEP   13
 
 SOLVING FOR HEAD 
                                                   Max.-Head-Change                         Max.-Flux-Residual
  Residual-Control   Outer-Iter.   Inner-Iter.     Column Row Layer    Maximum-Head-Change  Column Row Layer    Maximum-Flux-Residual          L2-NORM 
          0                 1           2             4    7     1       0.4285837525E-01       4    7    1         0.2258921440E+01      0.4681873453E+01
          0                 2           2             4    7     1      -0.4168991675E-02       4    7    1        -0.2258948925E+00      0.4681863975E+00
          0                 3           2             4    7     1       0.2838924821E-03       4    7    1         0.1581262330E-01      0.3277283029E-01
          0                 4           1             4    7     1      -0.1129634939E-04       4    7    1        -0.6467373050E-03      0.1340391238E-02

    ------------------------------------------------
       NWT REQUIRED            4 OUTER ITERATIONS 
       AND A TOTAL OF          7 INNER ITERATIONS.
    ------------------------------------------------

 NO OUTPUT CONTROL FOR STRESS PERIOD   12   TIME STEP   14
 
 SOLVING FOR HEAD 
                                                   Max.-Head-Change                         Max.-Flux-Residual
  Residual-Control   Outer-Iter.   Inner-Iter.     Column Row Layer    Maximum-Head-Change  Column Row Layer    Maximum-Flux-Residual          L2-NORM 
          0                 1           2             4    7     1       0.4225179435E-01       4    7    1         0.2226823354E+01      0.4624236938E+01
          0                 2           2             4    7     1      -0.4109986792E-02       4    7    1        -0.2226850087E+00      0.4624228658E+00
          0                 3           2             4    7     1       0.2798744791E-03       4    7    1         0.1558793205E-01      0.3236940851E-01
          0                 4           1             4    7     1      -0.1113646904E-04       4    7    1        -0.6375474277E-03      0.1323899599E-02

    ------------------------------------------------
       NWT REQUIRED            4 OUTER ITERATIONS 
       AND A TOTAL OF          7 INNER ITERATIONS.
    ------------------------------------------------

 NO OUTPUT CONTROL FOR STRESS PERIOD   12   TIME STEP   15
 
 SOLVING FOR HEAD 
                                                   Max.-Head-Change                         Max.-Flux-Residual
  Residual-Control   Outer-Iter.   Inner-Iter.     Column Row Layer    Maximum-Head-Change  Column Row Layer    Maximum-Flux-Residual          L2-NORM 
          0                 1           2             4    7     1       0.4165635754E-01       4    7    1         0.2195314747E+01      0.4567703198E+01
          0                 2           2             4    7     1      -0.4052065957E-02       4    7    1        -0.2195340751E+00      0.4567695600E+00
          0                 3           2             4    7     1       0.2759302955E-03       4    7    1         0.1536736729E-01      0.3197368147E-01
          0                 4           1             4    7     1      -0.1097952629E-04       4    7    1        -0.6285263171E-03      0.1307720340E-02

    ------------------------------------------------
       NWT REQUIRED            4 OUTER ITERATIONS 
       AND A TOTAL OF          7 INNER ITERATIONS.
    ------------------------------------------------

 NO OUTPUT CONTROL FOR STRESS PERIOD   12   TIME STEP   16
 
 SOLVING FOR HEAD 
                                                   Max.-Head-Change                         Max.-Flux-Residual
  Residual-Control   Outer-Iter.   Inner-Iter.     Column Row Layer    Maximum-Head-Change  Column Row Layer    Maximum-Flux-Residual          L2-NORM 
          0                 1           2             4    7     1       0.4107156458E-01       4    7    1         0.2164369360E+01      0.4512217539E+01
          0                 2           2             4    7     1      -0.3995180508E-02       4    7    1        -0.2164394654E+00      0.4512210828E+00
          0                 3           2             4    7     1       0.2720566174E-03       4    7    1         0.1515074519E-01      0.3158530258E-01
          0                 4           1             4    7     1      -0.1082538909E-04       4    7    1        -0.6196664581E-03      0.1291832214E-02

    ------------------------------------------------
       NWT REQUIRED            4 OUTER ITERATIONS 
       AND A TOTAL OF          7 INNER ITERATIONS.
    ------------------------------------------------

 NO OUTPUT CONTROL FOR STRESS PERIOD   12   TIME STEP   17
 
 SOLVING FOR HEAD 
                                                   Max.-Head-Change                         Max.-Flux-Residual
  Residual-Control   Outer-Iter.   Inner-Iter.     Column Row Layer    Maximum-Head-Change  Column Row Layer    Maximum-Flux-Residual          L2-NORM 
          0                 1           2             4    7     1       0.4049746813E-01       4    7    1         0.2133990405E+01      0.4457765761E+01
          0                 2           2             4    7     1      -0.3939335568E-02       4    7    1        -0.2134015010E+00      0.4457759578E+00
          0                 3           2             4    7     1       0.2682537941E-03       4    7    1         0.1493808825E-01      0.3120414261E-01
          0                 4           1             4    7     1      -0.1067407159E-04       4    7    1        -0.6109687783E-03      0.1276245959E-02

    ------------------------------------------------
       NWT REQUIRED            4 OUTER ITERATIONS 
       AND A TOTAL OF          7 INNER ITERATIONS.
    ------------------------------------------------

 NO OUTPUT CONTROL FOR STRESS PERIOD   12   TIME STEP   18
 
 SOLVING FOR HEAD 
                                                   Max.-Head-Change                         Max.-Flux-Residual
  Residual-Control   Outer-Iter.   Inner-Iter.     Column Row Layer    Maximum-Head-Change  Column Row Layer    Maximum-Flux-Residual          L2-NORM 
          0                 1           2             4    7     1       0.3993371788E-01       4    7    1         0.2104158750E+01      0.4404324494E+01
          0                 2           2             4    7     1      -0.3884497058E-02       4    7    1        -0.2104182686E+00      0.4404318919E+00
          0                 3           2             4    7     1       0.2645195043E-03       4    7    1         0.1472926251E-01      0.3083007597E-01
          0                 4           1             4    7     1      -0.1052548031E-04       4    7    1        -0.6024277873E-03      0.1260937296E-02

    ------------------------------------------------
       NWT REQUIRED            4 OUTER ITERATIONS 
       AND A TOTAL OF          7 INNER ITERATIONS.
    ------------------------------------------------

 NO OUTPUT CONTROL FOR STRESS PERIOD   12   TIME STEP   19
 
 SOLVING FOR HEAD 
                                                   Max.-Head-Change                         Max.-Flux-Residual
  Residual-Control   Outer-Iter.   Inner-Iter.     Column Row Layer    Maximum-Head-Change  Column Row Layer    Maximum-Flux-Residual          L2-NORM 
          0                 1           2             4    7     1       0.3938023112E-01       4    7    1         0.2074870810E+01      0.4351859126E+01
          0                 2           2             4    7     1      -0.3830656936E-02       4    7    1        -0.2074894096E+00      0.4351854205E+00
          0                 3           2             4    7     1       0.2608532009E-03       4    7    1         0.1452424291E-01      0.3046282938E-01
          0                 4           1             4    7     1      -0.1037959453E-04       4    7    1        -0.5940424680E-03      0.1245991152E-02

    ------------------------------------------------
       NWT REQUIRED            4 OUTER ITERATIONS 
       AND A TOTAL OF          7 INNER ITERATIONS.
    ------------------------------------------------

 NO OUTPUT CONTROL FOR STRESS PERIOD   12   TIME STEP   20
 
 SOLVING FOR HEAD 
                                                   Max.-Head-Change                         Max.-Flux-Residual
  Residual-Control   Outer-Iter.   Inner-Iter.     Column Row Layer    Maximum-Head-Change  Column Row Layer    Maximum-Flux-Residual          L2-NORM 
          0                 1           2             4    7     1       0.3883666000E-01       4    7    1         0.2046107717E+01      0.4300347497E+01
          0                 2           2             4    7     1      -0.3777780415E-02       4    7    1        -0.2046130371E+00      0.4299827023E+00
          0                 3           2             4    7     1       0.2572525149E-03       4    7    1         0.1432289735E-01      0.3009863658E-01
          0                 4           1             4    7     1      -0.1023631984E-04       4    7    1        -0.5858074164E-03      0.1231031695E-02

    ------------------------------------------------
       NWT REQUIRED            4 OUTER ITERATIONS 
       AND A TOTAL OF          7 INNER ITERATIONS.
    ------------------------------------------------

 NO OUTPUT CONTROL FOR STRESS PERIOD   12   TIME STEP   21
 
 SOLVING FOR HEAD 
                                                   Max.-Head-Change                         Max.-Flux-Residual
  Residual-Control   Outer-Iter.   Inner-Iter.     Column Row Layer    Maximum-Head-Change  Column Row Layer    Maximum-Flux-Residual          L2-NORM 
          0                 1           2             4    7     1       0.3830307101E-01       4    7    1         0.2017873358E+01      0.4249825752E+01
          0                 2           2             4    7     1      -0.3725876803E-02       4    7    1        -0.2017895399E+00      0.4249821701E+00
          0                 3           2             4    7     1       0.2537180801E-03       4    7    1         0.1412525303E-01      0.2974859406E-01
          0                 4           1             4    7     1      -0.1009568146E-04       4    7    1        -0.5777237525E-03      0.1216701557E-02

    ------------------------------------------------
       NWT REQUIRED            4 OUTER ITERATIONS 
       AND A TOTAL OF          7 INNER ITERATIONS.
    ------------------------------------------------

 NO OUTPUT CONTROL FOR STRESS PERIOD   12   TIME STEP   22
 
 SOLVING FOR HEAD 
                                                   Max.-Head-Change                         Max.-Flux-Residual
  Residual-Control   Outer-Iter.   Inner-Iter.     Column Row Layer    Maximum-Head-Change  Column Row Layer    Maximum-Flux-Residual          L2-NORM 
          0                 1           2             4    7     1       0.3777898077E-01       4    7    1         0.1990141867E+01      0.4200217506E+01
          0                 2           2             4    7     1      -0.3674896239E-02       4    7    1        -0.1990163312E+00      0.4200213934E+00
          0                 3           2             4    7     1       0.2502465014E-03       4    7    1         0.1393112891E-01      0.2940135981E-01
          0                 4           1             4    7     1      -0.9957543996E-05       4    7    1        -0.5697840675E-03      0.1202502309E-02

    ------------------------------------------------
       NWT REQUIRED            4 OUTER ITERATIONS 
       AND A TOTAL OF          7 INNER ITERATIONS.
    ------------------------------------------------

 NO OUTPUT CONTROL FOR STRESS PERIOD   12   TIME STEP   23
 
 SOLVING FOR HEAD 
                                                   Max.-Head-Change                         Max.-Flux-Residual
  Residual-Control   Outer-Iter.   Inner-Iter.     Column Row Layer    Maximum-Head-Change  Column Row Layer    Maximum-Flux-Residual          L2-NORM 
          0                 1           2             4    7     1       0.3726446256E-01       4    7    1         0.1962917497E+01      0.4151509837E+01
          0                 2           2             4    7     1      -0.3624846798E-02       4    7    1        -0.1962938363E+00      0.4151506479E+00
          0                 3           2             4    7     1       0.2468383280E-03       4    7    1         0.1374055473E-01      0.2906042773E-01
          0                 4           1             4    7     1      -0.9821929439E-05       4    7    1        -0.5619895564E-03      0.1188579876E-02

    ------------------------------------------------
       NWT REQUIRED            4 OUTER ITERATIONS 
       AND A TOTAL OF          7 INNER ITERATIONS.
    ------------------------------------------------

 NO OUTPUT CONTROL FOR STRESS PERIOD   12   TIME STEP   24
 
 SOLVING FOR HEAD 
                                                   Max.-Head-Change                         Max.-Flux-Residual
  Residual-Control   Outer-Iter.   Inner-Iter.     Column Row Layer    Maximum-Head-Change  Column Row Layer    Maximum-Flux-Residual          L2-NORM 
          0                 1           2             4    7     1       0.3675917409E-01       4    7    1         0.1936182123E+01      0.4103664258E+01
          0                 2           2             4    7     1      -0.3575695184E-02       4    7    1        -0.1936202427E+00      0.4103660840E+00
          0                 3           2             4    7     1       0.2434912937E-03       4    7    1         0.1355340363E-01      0.2872549368E-01
          0                 4           1             4    7     1      -0.9688747989E-05       4    7    1        -0.5543350785E-03      0.1174871758E-02

    ------------------------------------------------
       NWT REQUIRED            4 OUTER ITERATIONS 
       AND A TOTAL OF          7 INNER ITERATIONS.
    ------------------------------------------------

 NO OUTPUT CONTROL FOR STRESS PERIOD   12   TIME STEP   25
 
 SOLVING FOR HEAD 
                                                   Max.-Head-Change                         Max.-Flux-Residual
  Residual-Control   Outer-Iter.   Inner-Iter.     Column Row Layer    Maximum-Head-Change  Column Row Layer    Maximum-Flux-Residual          L2-NORM 
          0                 1           2             4    7     1       0.3626305472E-01       4    7    1         0.1909932584E+01      0.4056661765E+01
          0                 2           2             4    7     1      -0.3527435496E-02       4    7    1        -0.1909952342E+00      0.4056658582E+00
          0                 3           2             4    7     1       0.2402049953E-03       4    7    1         0.1336965346E-01      0.2839648569E-01
          0                 4           1             4    7     1      -0.9557982837E-05       4    7    1        -0.5468196664E-03      0.1161414283E-02

    ------------------------------------------------
       NWT REQUIRED            4 OUTER ITERATIONS 
       AND A TOTAL OF          7 INNER ITERATIONS.
    ------------------------------------------------

 NO OUTPUT CONTROL FOR STRESS PERIOD   12   TIME STEP   26
 
 SOLVING FOR HEAD 
                                                   Max.-Head-Change                         Max.-Flux-Residual
  Residual-Control   Outer-Iter.   Inner-Iter.     Column Row Layer    Maximum-Head-Change  Column Row Layer    Maximum-Flux-Residual          L2-NORM 
          0                 1           2             4    7     1       0.3577576932E-01       4    7    1         0.1884151147E+01      0.4010485995E+01
          0                 2           2             4    7     1      -0.3480035137E-02       4    7    1        -0.1884170376E+00      0.4010482794E+00
          0                 3           2             4    7     1       0.2369772146E-03       4    7    1         0.1318918014E-01      0.2807326634E-01
          0                 4           1             4    7     1      -0.9429546486E-05       4    7    1        -0.5394383079E-03      0.1148197366E-02

    ------------------------------------------------
       NWT REQUIRED            4 OUTER ITERATIONS 
       AND A TOTAL OF          7 INNER ITERATIONS.
    ------------------------------------------------

 NO OUTPUT CONTROL FOR STRESS PERIOD   12   TIME STEP   27
 
 SOLVING FOR HEAD 
                                                   Max.-Head-Change                         Max.-Flux-Residual
  Residual-Control   Outer-Iter.   Inner-Iter.     Column Row Layer    Maximum-Head-Change  Column Row Layer    Maximum-Flux-Residual          L2-NORM 
          0                 1           2             4    7     1       0.3529726766E-01       4    7    1         0.1858835026E+01      0.3965117296E+01
          0                 2           2             4    7     1      -0.3433489217E-02       4    7    1        -0.1858853740E+00      0.3965114334E+00
          0                 3           2             4    7     1       0.2338076172E-03       4    7    1         0.1301196408E-01      0.2775570430E-01
          0                 4           1             4    7     1      -0.9303425005E-05       4    7    1        -0.5321901567E-03      0.1135266093E-02

    ------------------------------------------------
       NWT REQUIRED            4 OUTER ITERATIONS 
       AND A TOTAL OF          7 INNER ITERATIONS.
    ------------------------------------------------

 NO OUTPUT CONTROL FOR STRESS PERIOD   12   TIME STEP   28
 
 SOLVING FOR HEAD 
                                                   Max.-Head-Change                         Max.-Flux-Residual
  Residual-Control   Outer-Iter.   Inner-Iter.     Column Row Layer    Maximum-Head-Change  Column Row Layer    Maximum-Flux-Residual          L2-NORM 
          0                 1           2             4    7     1       0.3482722136E-01       4    7    1         0.1833967028E+01      0.3920532322E+01
          0                 2           2             4    7     1      -0.3387765765E-02       4    7    1        -0.1833985242E+00      0.3920318936E+00
          0                 3           2             4    7     1       0.2306940271E-03       4    7    1         0.1283788500E-01      0.2744211646E-01
          0                 4           1             4    7     1      -0.9179532741E-05       4    7    1        -0.5250703248E-03      0.1122382872E-02

    ------------------------------------------------
       NWT REQUIRED            4 OUTER ITERATIONS 
       AND A TOTAL OF          7 INNER ITERATIONS.
    ------------------------------------------------

 NO OUTPUT CONTROL FOR STRESS PERIOD   12   TIME STEP   29
 
 SOLVING FOR HEAD 
                                                   Max.-Head-Change                         Max.-Flux-Residual
  Residual-Control   Outer-Iter.   Inner-Iter.     Column Row Layer    Maximum-Head-Change  Column Row Layer    Maximum-Flux-Residual          L2-NORM 
          0                 1           2             4    7     1       0.3436571508E-01       4    7    1         0.1809552013E+01      0.3877215270E+01
          0                 2           2             4    7     1      -0.3342873107E-02       4    7    1        -0.1809569741E+00      0.3877207061E+00
          0                 3           2             4    7     1       0.2276370101E-03       4    7    1         0.1266697689E-01      0.2714028980E-01
          0                 4           1             4    7     1      -0.9057890760E-05       4    7    1        -0.5180801454E-03      0.1110035559E-02

    ------------------------------------------------
       NWT REQUIRED            4 OUTER ITERATIONS 
       AND A TOTAL OF          7 INNER ITERATIONS.
    ------------------------------------------------

 NO OUTPUT CONTROL FOR STRESS PERIOD   12   TIME STEP   30



 STREAM LISTING     PERIOD     12   STEP       30

 LAYER ROW COL. STREAM  RCH.  FLOW INTO     FLOW TO   FLOW OUT OF   OVRLND.     DIRECT     STREAM       STREAM     STREAM     STREAM   STREAMBED  STREAMBED
                SEG.NO.  NO.  STRM. RCH.    AQUIFER    STRM. RCH.    RUNOFF     PRECIP       ET          HEAD       DEPTH      WIDTH   CONDCTNC.   GRADIENT

   1    1    1     1     1    9.5403E+00  1.4421E-01   9.3961E+00  0.000E+00  0.000E+00  0.000E+00  1.09393E+03  8.839E-01  8.251E+00  3.713E-02  1.295E+00
   1    2    2     1     2    9.3961E+00  2.2163E-01   9.1745E+00  0.000E+00  0.000E+00  0.000E+00  1.08894E+03  8.782E-01  8.164E+00  5.715E-02  1.293E+00
   1    3    3     1     3    9.1745E+00  1.8736E-01   8.9871E+00  0.000E+00  0.000E+00  0.000E+00  1.08329E+03  8.718E-01  8.065E+00  4.839E-02  1.291E+00
   1    3    4     1     4    8.9871E+00  1.7119E-01   8.8160E+00  0.000E+00  0.000E+00  0.000E+00  1.07827E+03  8.661E-01  7.978E+00  4.428E-02  1.289E+00
   1    4    5     2     1    6.8160E+00  2.7666E-01   6.5393E+00  0.000E+00  0.000E+00  0.000E+00  1.07248E+03  5.469E-01  1.200E+01  7.800E-02  1.182E+00
   1    5    6     2     2    6.5393E+00  2.1209E-01   6.3272E+00  0.000E+00  0.000E+00  0.000E+00  1.06704E+03  5.348E-01  1.200E+01  6.000E-02  1.178E+00
   1    6    6     2     3    6.3272E+00  2.1145E-01   6.1158E+00  0.000E+00  0.000E+00  0.000E+00  1.06232E+03  5.242E-01  1.200E+01  6.000E-02  1.175E+00
   1    7    6     2     4    6.1158E+00  2.1081E-01   5.9050E+00  0.000E+00  0.000E+00  0.000E+00  1.05759E+03  5.134E-01  1.200E+01  6.000E-02  1.171E+00
   1    8    6     2     5    5.9050E+00  2.1015E-01   5.6948E+00  0.000E+00  0.000E+00  0.000E+00  1.05286E+03  5.026E-01  1.200E+01  6.000E-02  1.168E+00
   1    3    5     3     1    2.0000E+00  2.8252E-01   1.7175E+00  0.000E+00  0.000E+00  0.000E+00  1.07555E+03  1.909E+00  9.636E+00  7.227E-02  1.955E+00
   1    3    6     3     2    1.7175E+00  2.4905E-01   1.4684E+00  0.000E+00  0.000E+00  0.000E+00  1.07264E+03  1.727E+00  8.909E+00  6.682E-02  1.864E+00
   1    3    7     3     3    1.4684E+00  1.9718E-01   1.2712E+00  0.000E+00  0.000E+00  0.000E+00  1.06987E+03  1.555E+00  8.218E+00  5.547E-02  1.777E+00
   1    4    8     3     4    1.2712E+00  2.2567E-01   1.0456E+00  0.000E+00  0.000E+00  0.000E+00  1.06682E+03  1.364E+00  7.455E+00  6.709E-02  1.682E+00
   1    5    8     3     5    1.0456E+00  1.5790E-01   8.8768E-01  0.000E+00  0.000E+00  0.000E+00  1.06362E+03  1.164E+00  6.655E+00  4.991E-02  1.582E+00
   1    6    8     3     6    8.8768E-01  5.5980E-02   8.3170E-01  0.000E+00  0.000E+00  0.000E+00  1.06158E+03  1.036E+00  6.145E+00  1.844E-02  1.518E+00
   1    5   10     4     1    1.0000E+01  9.0919E-02   9.9091E+00  0.000E+00  0.000E+00  0.000E+00  1.07836E+03  6.368E-01  1.000E+01  2.500E-02  1.212E+00
   1    5    9     4     2    9.9091E+00  1.8158E-01   9.7275E+00  0.000E+00  0.000E+00  0.000E+00  1.07154E+03  6.315E-01  1.000E+01  5.000E-02  1.211E+00
   1    6    8     4     3    9.7275E+00  1.2689E-01   9.6006E+00  0.000E+00  0.000E+00  0.000E+00  1.06381E+03  6.256E-01  1.000E+01  3.500E-02  1.209E+00
   1    6    8     5     1    1.0432E+01  2.2686E-01   1.0205E+01  0.000E+00  0.000E+00  0.000E+00  1.05868E+03  6.790E-01  1.542E+01  6.166E-02  1.226E+00
   1    7    7     5     2    1.0205E+01  2.7894E-01   9.9265E+00  0.000E+00  0.000E+00  0.000E+00  1.05417E+03  6.732E-01  1.519E+01  7.594E-02  1.224E+00
   1    8    7     5     3    9.9265E+00  1.9221E-01   9.7343E+00  0.000E+00  0.000E+00  0.000E+00  1.04992E+03  6.676E-01  1.497E+01  5.241E-02  1.223E+00
   1    8    6     5     4    9.7343E+00  1.3577E-01   9.5985E+00  0.000E+00  0.000E+00  0.000E+00  1.04691E+03  6.637E-01  1.482E+01  3.706E-02  1.221E+00
   1    9    6     6     1    1.5293E+01  2.3430E-01   1.5059E+01  0.000E+00  0.000E+00  0.000E+00  1.04363E+03  9.050E-01  1.200E+01  6.000E-02  1.302E+00
   1   10    7     6     2    1.5059E+01  2.3380E-01   1.4825E+01  0.000E+00  0.000E+00  0.000E+00  1.03908E+03  8.966E-01  1.200E+01  6.000E-02  1.299E+00
   1   11    7     6     3    1.4825E+01  2.3329E-01   1.4592E+01  0.000E+00  0.000E+00  0.000E+00  1.03452E+03  8.882E-01  1.200E+01  6.000E-02  1.296E+00
   1   12    7     6     4    1.4592E+01  2.3278E-01   1.4359E+01  0.000E+00  0.000E+00  0.000E+00  1.02997E+03  8.797E-01  1.200E+01  6.000E-02  1.293E+00
   1   13    7     6     5    1.4359E+01 -9.9724E-03   1.4369E+01  0.000E+00  0.000E+00  0.000E+00  1.02678E+03  8.757E-01  1.200E+01  2.400E-01 -1.385E-02
   1   14    9     7     1    1.5000E+02  1.3693E+00   1.4863E+02  0.000E+00  0.000E+00  0.000E+00  1.03987E+03  2.288E+00  5.529E+01  5.593E-01  8.161E-01
   1   13    8     7     2    1.4863E+02  1.9204E+00   1.4671E+02  0.000E+00  0.000E+00  0.000E+00  1.03478E+03  2.279E+00  5.525E+01  6.148E-01  1.041E+00
   1   13    7     7     3    1.4671E+02  1.5984E+00   1.4511E+02  0.000E+00  0.000E+00  0.000E+00  1.02969E+03  2.269E+00  5.521E+01  5.584E-01  9.542E-01
   1   13    6     8     1    1.5948E+02  9.9088E-01   1.5849E+02  0.000E+00  0.000E+00  0.000E+00  1.02475E+03  2.879E+00  4.175E+01  4.254E-01  7.764E-01
   1   13    5     8     2    1.5849E+02  2.5157E-01   1.5824E+02  0.000E+00  0.000E+00  0.000E+00  1.01850E+03  2.875E+00  4.168E+01  4.248E-01  1.974E-01
   1   13    4     8     3    1.5824E+02 -2.1596E+00   1.6040E+02  0.000E+00  0.000E+00  0.000E+00  1.01226E+03  2.881E+00  4.178E+01  4.257E+00 -1.691E-01
   1   13    3     8     4    1.6040E+02 -3.5239E+00   1.6392E+02  0.000E+00  0.000E+00  0.000E+00  1.00603E+03  2.900E+00  4.206E+01  4.286E+00 -2.741E-01
   1   13    2     8     5    1.6392E+02 -2.5546E+00   1.6648E+02  0.000E+00  0.000E+00  0.000E+00  9.99796E+02  2.921E+00  4.235E+01  4.316E+00 -1.973E-01
   1   13    1     8     6    1.6648E+02 -1.9762E+00   1.6845E+02  0.000E+00  0.000E+00  0.000E+00  9.94811E+02  2.936E+00  4.257E+01  2.603E+00 -2.531E-01
   1    8    6     9     1    0.0000E+00  0.0000E+00   0.0000E+00  0.000E+00  0.000E+00  0.000E+00  1.07875E+03  0.000E+00  4.000E+00  0.000E+00  1.000E+00
   1    8    5     9     2    0.0000E+00  0.0000E+00   0.0000E+00  0.000E+00  0.000E+00  0.000E+00  1.07825E+03  0.000E+00  4.000E+00  0.000E+00  1.000E+00





UNSATURATED ZONE PACKAGE VOLUMETRIC BUDGET FOR  TIME STEP    30 STRESS PERIOD   12
  ------------------------------------------------------------------------------



     CUMULATIVE VOLUMES      L**3       RATES FOR THIS TIME STEP      L**3/T
     ------------------                 ------------------------

           IN:                                      IN:
           ---                                      ---
        INFILTRATION =   669207439.9226          INFILTRATION =           0.8475

          OUT:                                     OUT:
          ----                                     ----
              UZF ET =   430227883.8475                UZF ET =           0.7500
        UZF RECHARGE =       73224.0000          UZF RECHARGE =       0.0000E+00

            IN - OUT =   238906332.0751              IN - OUT =       9.7500E-02

          STORAGE:                                 STORAGE:
          --------                                 --------
      STORAGE CHANGE =   238906680.5796        STORAGE CHANGE =       9.7500E-02

 PERCENT DISCREPANCY IS DIFFERENCE BETWEEN IN-OUT MINUS CHANGE IN STORAGE
 DIVIDED BY THE AVERAGE OF IN AND OUT TIMES 100

 PERCENT DISCREPANCY =          -0.00     PERCENT DISCREPANCY =           0.00






1
  VOLUMETRIC BUDGET FOR AGRICULTURAL FIELDS AT  END OF TIME STEP   30, STRESS PERIOD  12
  ------------------------------------------------------------------------------

     CUMULATIVE VOLUMES      L**3       RATES FOR THIS TIME STEP      L**3/T
     ------------------                 ------------------------

           IN:                                      IN:
           ---                                      ---
               AG WELLS  =   429841792.0000                 AG WELLS  =           0.0000
      DIVERSION SEGMENTS =   214830320.0000        DIVERSION SEGMENTS =           0.0000
       IRRIGATION PONDS  =           0.0000         IRRIGATION PONDS  =           0.0000
           GW IRRIGATION =           0.0000             GW IRRIGATION =           0.0000
           SW IRRIGATION =           0.0000             SW IRRIGATION =           0.0000
        SYSTEM LOSSES GW =           0.0000          SYSTEM LOSSES GW =           0.0000
        SYSTEM LOSSES SW =           0.0000          SYSTEM LOSSES SW =           0.0000

                TOTAL IN =   644672128.0000                  TOTAL IN =           0.0000

          OUT:                                     OUT:
          ----                                     ----
               AG WELLS  =           0.0000                 AG WELLS  =           0.0000
      DIVERSION SEGMENTS =           0.0000        DIVERSION SEGMENTS =           0.0000
       IRRIGATION PONDS  =           0.0000         IRRIGATION PONDS  =           0.0000
           GW IRRIGATION =   429841792.0000             GW IRRIGATION =           0.0000
           SW IRRIGATION =   214834512.0000             SW IRRIGATION =           0.0000
        SYSTEM LOSSES GW =           0.0000          SYSTEM LOSSES GW =           0.0000
        SYSTEM LOSSES SW =           0.0000          SYSTEM LOSSES SW =           0.0000

               TOTAL OUT =   644676288.0000                 TOTAL OUT =           0.0000

                IN - OUT =       -4160.0000                  IN - OUT =           0.0000

     PERCENT DISCREPANCY =          -0.00         PERCENT DISCREPANCY =           0.00



1
  VOLUMETRIC BUDGET FOR ENTIRE MODEL AT END OF TIME STEP   30, STRESS PERIOD  12
  ------------------------------------------------------------------------------

     CUMULATIVE VOLUMES      L**3       RATES FOR THIS TIME STEP      L**3/T
     ------------------                 ------------------------

           IN:                                      IN:
           ---                                      ---
             STORAGE     =   636886144.0000               STORAGE     =          10.1778
       CONSTANT HEAD     =           0.0000         CONSTANT HEAD     =           0.0000
     HEAD DEP BOUNDS     =     8354583.0000       HEAD DEP BOUNDS     =           0.2880
      STREAM LEAKAGE     =   341251872.0000        STREAM LEAKAGE     =          11.3118
        UZF RECHARGE     =       73223.9531          UZF RECHARGE     =           0.0000
               GW ET     =           0.0000                 GW ET     =           0.0000
     SURFACE LEAKAGE     =           0.0000       SURFACE LEAKAGE     =           0.0000
           AG WELLS      =           0.0000             AG WELLS      =           0.0000

                TOTAL IN =   986565760.0000                  TOTAL IN =          21.7776

          OUT:                                     OUT:
          ----                                     ----
             STORAGE     =   248776656.0000               STORAGE     =          11.2658
       CONSTANT HEAD     =           0.0000         CONSTANT HEAD     =           0.0000
     HEAD DEP BOUNDS     =     8357512.0000       HEAD DEP BOUNDS     =           0.2877
      STREAM LEAKAGE     =   299592384.0000        STREAM LEAKAGE     =          10.2242
        UZF RECHARGE     =           0.0000          UZF RECHARGE     =           0.0000
               GW ET     =           0.0000                 GW ET     =           0.0000
     SURFACE LEAKAGE     =           0.0000       SURFACE LEAKAGE     =           0.0000
           AG WELLS      =   429841792.0000             AG WELLS      =           0.0000

               TOTAL OUT =   986568320.0000                 TOTAL OUT =          21.7776

                IN - OUT =       -2560.0000                  IN - OUT =       7.6294E-06

     PERCENT DISCREPANCY =          -0.00         PERCENT DISCREPANCY =           0.00






         TIME SUMMARY AT END OF TIME STEP   30 IN STRESS PERIOD   12
                    SECONDS     MINUTES      HOURS       DAYS        YEARS
                    -----------------------------------------------------------
   TIME STEP LENGTH  87667.      1461.1      24.352      1.0147     2.77799E-03
 STRESS PERIOD TIME 2.63000E+06  43833.      730.56      30.440     8.33397E-02
         TOTAL TIME 2.90163E+07 4.83606E+05  8060.1      335.84     0.91947    
1
1
                            STRESS PERIOD NO.   13, LENGTH =   2630000.    
                            -----------------------------------------------

                              NUMBER OF TIME STEPS =    30

                               MULTIPLIER FOR DELT =     1.000

                            INITIAL TIME STEP SIZE =   87666.66    

 REUSING NON-PARAMETER GHB CELLS FROM LAST STRESS PERIOD

      2 GHB CELLS

 REUSING STREAM SEGMENT DATA FROM LAST STRESS PERIOD



            AREAL INFILTRATION RATE
 READING ON UNIT   19 WITH FORMAT: (FREE)              

            1           2           3           4           5           6           7           8           9          10
 ........................................................................................................................
   1   1.0000E-10  2.0000E-10   0.000       0.000       0.000       0.000       0.000       0.000       0.000       0.000    
   2   2.0000E-10  1.0000E-10  2.0000E-10   0.000       0.000      8.0000E-10  8.0000E-10  5.0000E-10   0.000       0.000    
   3    0.000      5.0000E-10  1.0000E-10  1.0000E-10  8.0000E-10  8.0000E-10  5.0000E-10  5.0000E-10   0.000       0.000    
   4   8.0000E-10  5.0000E-10  1.0000E-10  1.0000E-10  1.0000E-10  1.0000E-10  1.0000E-10  1.0000E-10  2.0000E-10   0.000    
   5   8.0000E-10  5.0000E-10  1.0000E-10  1.0000E-10  1.0000E-10  1.0000E-10  1.0000E-10  1.0000E-10  1.0000E-10  1.0000E-10
   6   8.0000E-10  5.0000E-10  5.0000E-10  2.0000E-10  2.0000E-10  1.0000E-10  1.0000E-10  1.0000E-10  1.0000E-10  5.0000E-10
   7   8.0000E-10  5.0000E-10  5.0000E-10  2.0000E-10  2.0000E-10  1.0000E-10  1.0000E-10  2.0000E-10  2.0000E-10   0.000    
   8    0.000      5.0000E-10  5.0000E-10  2.0000E-10  2.0000E-10  1.0000E-10  1.0000E-10  2.0000E-10  5.0000E-10   0.000    
   9    0.000      5.0000E-10  5.0000E-10  2.0000E-10  2.0000E-10  1.0000E-10  1.0000E-10  2.0000E-10  5.0000E-10   0.000    
  10    0.000      5.0000E-10  5.0000E-10  2.0000E-10  2.0000E-10  1.0000E-10  1.0000E-10  2.0000E-10  5.0000E-10  8.0000E-10
  11    0.000      1.0000E-10  1.0000E-10  1.0000E-10  1.0000E-10  1.0000E-10  1.0000E-10  2.0000E-10  5.0000E-10   0.000    
  12   1.0000E-10  1.0000E-10  1.0000E-10  1.0000E-10  1.0000E-10  1.0000E-10  1.0000E-10  1.0000E-10  2.0000E-10   0.000    
  13   1.0000E-10  1.0000E-10  2.0000E-10  2.0000E-10  2.0000E-10  2.0000E-10  2.0000E-10  1.0000E-10  1.0000E-10   0.000    
  14    0.000      2.0000E-10  5.0000E-10  5.0000E-10  5.0000E-10  5.0000E-10  5.0000E-10  2.0000E-10  1.0000E-10   0.000    
  15    0.000       0.000      8.0000E-10  8.0000E-10  8.0000E-10  8.0000E-10   0.000       0.000       0.000       0.000    

                  ET RATE =  5.000000E-10

 USING ET EXTINCTION DEPTH FROM PREVIOUS STRESS PERIOD. CURRENT PERIOD IS:      13

 USING EXTINCTION WATER CONTENT FROM PREVIOUS STRESS PERIOD. CURRENT PERIOD IS:      13

 USING AIR ENTRY PRESSURE FROM PREVIOUS STRESS PERIOD. CURRENT PERIOD IS:      13

 USING ROOT PRESSURE HEAD FROM PREVIOUS STRESS PERIOD. CURRENT PERIOD IS:      13

 USING ROOT ACTIVITY FROM PREVIOUS STRESS PERIOD. CURRENT PERIOD IS:      13

 PROCESSING AG STRESS PERIOD DATA

 READING AG STRESS PERIOD DATA

 READING IRRIGATION SEGMENT

 READING IRRIGATION WELL

 READING SUPPLEMENTAL WELL

 NO IRRPOND OR REUSING IRRPOND DATA FROM LAST STRESS PERIOD

 END PROCESSING AG STRESS PERIOD DATA OPTIONS
 
 SOLVING FOR HEAD 
                                                   Max.-Head-Change                         Max.-Flux-Residual
  Residual-Control   Outer-Iter.   Inner-Iter.     Column Row Layer    Maximum-Head-Change  Column Row Layer    Maximum-Flux-Residual          L2-NORM 
          0                 1           2             4    7     1       0.3391241633E-01       4    7    1         0.1785572481E+01      0.3836547714E+01
          0                 2           2             4    7     1      -0.3298778808E-02       4    7    1        -0.1785589739E+00      0.3836508562E+00
          0                 3           2             4    7     1       0.2246343585E-03       4    7    1         0.1249911724E-01      0.2685513241E-01
          0                 4           1             4    7     1      -0.8938412258E-05       4    7    1        -0.5112146700E-03      0.1098344869E-02

    ------------------------------------------------
       NWT REQUIRED            4 OUTER ITERATIONS 
       AND A TOTAL OF          7 INNER ITERATIONS.
    ------------------------------------------------

 NO OUTPUT CONTROL FOR STRESS PERIOD   13   TIME STEP    1
 
 SOLVING FOR HEAD 
                                                   Max.-Head-Change                         Max.-Flux-Residual
  Residual-Control   Outer-Iter.   Inner-Iter.     Column Row Layer    Maximum-Head-Change  Column Row Layer    Maximum-Flux-Residual          L2-NORM 
          0                 1           2             4    7     1       0.3346714610E-01       4    7    1         0.1762018493E+01      0.3794172653E+01
          0                 2           2             4    7     1      -0.3255465484E-02       4    7    1        -0.1762035294E+00      0.3794136533E+00
          0                 3           2             4    7     1       0.2216848886E-03       4    7    1         0.1233423649E-01      0.2655854174E-01
          0                 4           1             4    7     1      -0.8821050376E-05       4    7    1        -0.5044710542E-03      0.1086224928E-02

    ------------------------------------------------
       NWT REQUIRED            4 OUTER ITERATIONS 
       AND A TOTAL OF          7 INNER ITERATIONS.
    ------------------------------------------------

 NO OUTPUT CONTROL FOR STRESS PERIOD   13   TIME STEP    2
 
 SOLVING FOR HEAD 
                                                   Max.-Head-Change                         Max.-Flux-Residual
  Residual-Control   Outer-Iter.   Inner-Iter.     Column Row Layer    Maximum-Head-Change  Column Row Layer    Maximum-Flux-Residual          L2-NORM 
          0                 1           2             4    7     1       0.3302986304E-01       4    7    1         0.1738888063E+01      0.3752521624E+01
          0                 2           2             4    7     1      -0.3212929114E-02       4    7    1        -0.1738904420E+00      0.3752487837E+00
          0                 3           2             4    7     1       0.2187883258E-03       4    7    1         0.1217232072E-01      0.2626698746E-01
          0                 4           1             4    7     1      -0.8705793487E-05       4    7    1        -0.4978486818E-03      0.1074310504E-02

    ------------------------------------------------
       NWT REQUIRED            4 OUTER ITERATIONS 
       AND A TOTAL OF          7 INNER ITERATIONS.
    ------------------------------------------------

 NO OUTPUT CONTROL FOR STRESS PERIOD   13   TIME STEP    3
 
 SOLVING FOR HEAD 
                                                   Max.-Head-Change                         Max.-Flux-Residual
  Residual-Control   Outer-Iter.   Inner-Iter.     Column Row Layer    Maximum-Head-Change  Column Row Layer    Maximum-Flux-Residual          L2-NORM 
          0                 1           2             4    7     1       0.3260025640E-01       4    7    1         0.1716164454E+01      0.3711573682E+01
          0                 2           2             4    7     1      -0.3171139470E-02       4    7    1        -0.1716180380E+00      0.3711543031E+00
          0                 3           2             4    7     1       0.2159426123E-03       4    7    1         0.1201325279E-01      0.2598044728E-01
          0                 4           1             4    7     1      -0.8592559736E-05       4    7    1        -0.4913427965E-03      0.1062585358E-02

    ------------------------------------------------
       NWT REQUIRED            4 OUTER ITERATIONS 
       AND A TOTAL OF          7 INNER ITERATIONS.
    ------------------------------------------------

 NO OUTPUT CONTROL FOR STRESS PERIOD   13   TIME STEP    4
 
 SOLVING FOR HEAD 
                                                   Max.-Head-Change                         Max.-Flux-Residual
  Residual-Control   Outer-Iter.   Inner-Iter.     Column Row Layer    Maximum-Head-Change  Column Row Layer    Maximum-Flux-Residual          L2-NORM 
          0                 1           2             4    7     1       0.3217816361E-01       4    7    1         0.1693838850E+01      0.3671318674E+01
          0                 2           2             4    7     1      -0.3130080735E-02       4    7    1        -0.1693854357E+00      0.3671290251E+00
          0                 3           2             4    7     1       0.2131466704E-03       4    7    1         0.1185697095E-01      0.2569869161E-01
          0                 4           1             4    7     1      -0.8481306640E-05       4    7    1        -0.4849508473E-03      0.1051062029E-02

    ------------------------------------------------
       NWT REQUIRED            4 OUTER ITERATIONS 
       AND A TOTAL OF          7 INNER ITERATIONS.
    ------------------------------------------------

 NO OUTPUT CONTROL FOR STRESS PERIOD   13   TIME STEP    5
 
 SOLVING FOR HEAD 
                                                   Max.-Head-Change                         Max.-Flux-Residual
  Residual-Control   Outer-Iter.   Inner-Iter.     Column Row Layer    Maximum-Head-Change  Column Row Layer    Maximum-Flux-Residual          L2-NORM 
          0                 1           2             4    7     1       0.3176355053E-01       4    7    1         0.1671910122E+01      0.3631729623E+01
          0                 2           2             4    7     1      -0.3089749589E-02       4    7    1        -0.1671925222E+00      0.3631661839E+00
          0                 3           2             4    7     1       0.2104002750E-03       4    7    1         0.1170346734E-01      0.2542132847E-01
          0                 4           1             4    7     1      -0.8372024874E-05       4    7    1        -0.4786725472E-03      0.1039708542E-02

    ------------------------------------------------
       NWT REQUIRED            4 OUTER ITERATIONS 
       AND A TOTAL OF          7 INNER ITERATIONS.
    ------------------------------------------------

 NO OUTPUT CONTROL FOR STRESS PERIOD   13   TIME STEP    6
 
 SOLVING FOR HEAD 
                                                   Max.-Head-Change                         Max.-Flux-Residual
  Residual-Control   Outer-Iter.   Inner-Iter.     Column Row Layer    Maximum-Head-Change  Column Row Layer    Maximum-Flux-Residual          L2-NORM 
          0                 1           2             4    7     1       0.3135625198E-01       4    7    1         0.1650369201E+01      0.3592809477E+01
          0                 2           2             4    7     1      -0.3050129968E-02       4    7    1        -0.1650383907E+00      0.3592785131E+00
          0                 3           2             4    7     1       0.2077023312E-03       4    7    1         0.1155267844E-01      0.2514911049E-01
          0                 4           1             4    7     1      -0.8264670804E-05       4    7    1        -0.4725052572E-03      0.1028620680E-02

    ------------------------------------------------
       NWT REQUIRED            4 OUTER ITERATIONS 
       AND A TOTAL OF          7 INNER ITERATIONS.
    ------------------------------------------------

 NO OUTPUT CONTROL FOR STRESS PERIOD   13   TIME STEP    7
 
 SOLVING FOR HEAD 
                                                   Max.-Head-Change                         Max.-Flux-Residual
  Residual-Control   Outer-Iter.   Inner-Iter.     Column Row Layer    Maximum-Head-Change  Column Row Layer    Maximum-Flux-Residual          L2-NORM 
          0                 1           2             4    7     1       0.3095610641E-01       4    7    1         0.1629207523E+01      0.3554544621E+01
          0                 2           2             4    7     1      -0.3011206152E-02       4    7    1        -0.1629221846E+00      0.3554521979E+00
          0                 3           2             4    7     1       0.2050517691E-03       4    7    1         0.1140454429E-01      0.2488140354E-01
          0                 4           1             4    7     1      -0.8159202870E-05       4    7    1        -0.4664465800E-03      0.1017654166E-02

    ------------------------------------------------
       NWT REQUIRED            4 OUTER ITERATIONS 
       AND A TOTAL OF          7 INNER ITERATIONS.
    ------------------------------------------------

 NO OUTPUT CONTROL FOR STRESS PERIOD   13   TIME STEP    8
 
 SOLVING FOR HEAD 
                                                   Max.-Head-Change                         Max.-Flux-Residual
  Residual-Control   Outer-Iter.   Inner-Iter.     Column Row Layer    Maximum-Head-Change  Column Row Layer    Maximum-Flux-Residual          L2-NORM 
          0                 1           2             4    7     1       0.3056309017E-01       4    7    1         0.1608424013E+01      0.3516909684E+01
          0                 2           2             4    7     1      -0.2972975843E-02       4    7    1        -0.1608437964E+00      0.3516888455E+00
          0                 3           2             4    7     1       0.2024484319E-03       4    7    1         0.1125905740E-01      0.2461795668E-01
          0                 4           1             4    7     1      -0.8055613588E-05       4    7    1        -0.4604961441E-03      0.1006856258E-02

    ------------------------------------------------
       NWT REQUIRED            4 OUTER ITERATIONS 
       AND A TOTAL OF          7 INNER ITERATIONS.
    ------------------------------------------------

 NO OUTPUT CONTROL FOR STRESS PERIOD   13   TIME STEP    9
 
 SOLVING FOR HEAD 
                                                   Max.-Head-Change                         Max.-Flux-Residual
  Residual-Control   Outer-Iter.   Inner-Iter.     Column Row Layer    Maximum-Head-Change  Column Row Layer    Maximum-Flux-Residual          L2-NORM 
          0                 1           2             4    7     1       0.3017677463E-01       4    7    1         0.1587995544E+01      0.3479890753E+01
          0                 2           2             4    7     1      -0.2935397343E-02       4    7    1        -0.1588009133E+00      0.3479870391E+00
          0                 3           2             4    7     1       0.1998894811E-03       4    7    1         0.1111605588E-01      0.2435881801E-01
          0                 4           1             4    7     1      -0.7953790939E-05       4    7    1        -0.4546473929E-03      0.9962581971E-03

    ------------------------------------------------
       NWT REQUIRED            4 OUTER ITERATIONS 
       AND A TOTAL OF          7 INNER ITERATIONS.
    ------------------------------------------------

 NO OUTPUT CONTROL FOR STRESS PERIOD   13   TIME STEP   10
 
 SOLVING FOR HEAD 
                                                   Max.-Head-Change                         Max.-Flux-Residual
  Residual-Control   Outer-Iter.   Inner-Iter.     Column Row Layer    Maximum-Head-Change  Column Row Layer    Maximum-Flux-Residual          L2-NORM 
          0                 1           2             4    7     1       0.2979714985E-01       4    7    1         0.1567921792E+01      0.3443472451E+01
          0                 2           2             4    7     1      -0.2898469687E-02       4    7    1        -0.1567935029E+00      0.3443453306E+00
          0                 3           2             4    7     1       0.1973748492E-03       4    7    1         0.1097553742E-01      0.2410395359E-01
          0                 4           1             4    7     1      -0.7853730778E-05       4    7    1        -0.4489001490E-03      0.9858458660E-03

    ------------------------------------------------
       NWT REQUIRED            4 OUTER ITERATIONS 
       AND A TOTAL OF          7 INNER ITERATIONS.
    ------------------------------------------------

 NO OUTPUT CONTROL FOR STRESS PERIOD   13   TIME STEP   11
 
 SOLVING FOR HEAD 
                                                   Max.-Head-Change                         Max.-Flux-Residual
  Residual-Control   Outer-Iter.   Inner-Iter.     Column Row Layer    Maximum-Head-Change  Column Row Layer    Maximum-Flux-Residual          L2-NORM 
          0                 1           2             4    7     1       0.2942420066E-01       4    7    1         0.1548202244E+01      0.3407636378E+01
          0                 2           2             4    7     1      -0.2862191399E-02       4    7    1        -0.1548215140E+00      0.3407618184E+00
          0                 3           2             4    7     1       0.1949044376E-03       4    7    1         0.1083749847E-01      0.2385309648E-01
          0                 4           1             4    7     1      -0.7755431034E-05       4    7    1        -0.4432543687E-03      0.9755772763E-03

    ------------------------------------------------
       NWT REQUIRED            4 OUTER ITERATIONS 
       AND A TOTAL OF          7 INNER ITERATIONS.
    ------------------------------------------------

 NO OUTPUT CONTROL FOR STRESS PERIOD   13   TIME STEP   12
 
 SOLVING FOR HEAD 
                                                   Max.-Head-Change                         Max.-Flux-Residual
  Residual-Control   Outer-Iter.   Inner-Iter.     Column Row Layer    Maximum-Head-Change  Column Row Layer    Maximum-Flux-Residual          L2-NORM 
          0                 1           2             4    7     1       0.2905764338E-01       4    7    1         0.1528821510E+01      0.3372378834E+01
          0                 2           2             4    7     1      -0.2826534884E-02       4    7    1        -0.1528834075E+00      0.3372361362E+00
          0                 3           2             4    7     1       0.1924763655E-03       4    7    1         0.1070183125E-01      0.2360629393E-01
          0                 4           1             4    7     1      -0.7658815491E-05       4    7    1        -0.4377055589E-03      0.9654760642E-03

    ------------------------------------------------
       NWT REQUIRED            4 OUTER ITERATIONS 
       AND A TOTAL OF          7 INNER ITERATIONS.
    ------------------------------------------------

 NO OUTPUT CONTROL FOR STRESS PERIOD   13   TIME STEP   13
 
 SOLVING FOR HEAD 
                                                   Max.-Head-Change                         Max.-Flux-Residual
  Residual-Control   Outer-Iter.   Inner-Iter.     Column Row Layer    Maximum-Head-Change  Column Row Layer    Maximum-Flux-Residual          L2-NORM 
          0                 1           2             4    7     1       0.2869747202E-01       4    7    1         0.1509779486E+01      0.3337682424E+01
          0                 2           2             4    7     1      -0.2791499558E-02       4    7    1        -0.1509791730E+00      0.3337665825E+00
          0                 3           2             4    7     1       0.1900905944E-03       4    7    1         0.1056853509E-01      0.2336343834E-01
          0                 4           1             4    7     1      -0.7563883459E-05       4    7    1        -0.4322537393E-03      0.9555451011E-03

    ------------------------------------------------
       NWT REQUIRED            4 OUTER ITERATIONS 
       AND A TOTAL OF          7 INNER ITERATIONS.
    ------------------------------------------------

 NO OUTPUT CONTROL FOR STRESS PERIOD   13   TIME STEP   14
 
 SOLVING FOR HEAD 
                                                   Max.-Head-Change                         Max.-Flux-Residual
  Residual-Control   Outer-Iter.   Inner-Iter.     Column Row Layer    Maximum-Head-Change  Column Row Layer    Maximum-Flux-Residual          L2-NORM 
          0                 1           2             4    7     1       0.2834354520E-01       4    7    1         0.1491068560E+01      0.3303542426E+01
          0                 2           2             4    7     1      -0.2757071670E-02       4    7    1        -0.1491080490E+00      0.3303526540E+00
          0                 3           2             4    7     1       0.1877461874E-03       4    7    1         0.1043755665E-01      0.2312448838E-01
          0                 4           1             4    7     1      -0.7470597522E-05       4    7    1        -0.4268967182E-03      0.9457864002E-03

    ------------------------------------------------
       NWT REQUIRED            4 OUTER ITERATIONS 
       AND A TOTAL OF          7 INNER ITERATIONS.
    ------------------------------------------------

 NO OUTPUT CONTROL FOR STRESS PERIOD   13   TIME STEP   15
 
 SOLVING FOR HEAD 
                                                   Max.-Head-Change                         Max.-Flux-Residual
  Residual-Control   Outer-Iter.   Inner-Iter.     Column Row Layer    Maximum-Head-Change  Column Row Layer    Maximum-Flux-Residual          L2-NORM 
          0                 1           2             4    7     1       0.2799558663E-01       4    7    1         0.1472674097E+01      0.3269937002E+01
          0                 2           2             4    7     1      -0.2723224342E-02       4    7    1        -0.1472685724E+00      0.3269921638E+00
          0                 3           2             4    7     1       0.1854413141E-03       4    7    1         0.1030879350E-01      0.2289012416E-01
          0                 4           1             4    7     1      -0.7378884343E-05       4    7    1        -0.4216303009E-03      0.9405849207E-03

    ------------------------------------------------
       NWT REQUIRED            4 OUTER ITERATIONS 
       AND A TOTAL OF          7 INNER ITERATIONS.
    ------------------------------------------------

 NO OUTPUT CONTROL FOR STRESS PERIOD   13   TIME STEP   16
 
 SOLVING FOR HEAD 
                                                   Max.-Head-Change                         Max.-Flux-Residual
  Residual-Control   Outer-Iter.   Inner-Iter.     Column Row Layer    Maximum-Head-Change  Column Row Layer    Maximum-Flux-Residual          L2-NORM 
          0                 1           2             4    7     1       0.2765360054E-01       4    7    1         0.1454596380E+01      0.3236855779E+01
          0                 2           2             4    7     1      -0.2689957988E-02       4    7    1        -0.1454607712E+00      0.3236840864E+00
          0                 3           2             4    7     1       0.1831760031E-03       4    7    1         0.1018224766E-01      0.2265767902E-01
          0                 4           1             4    7     1      -0.7288745418E-05       4    7    1        -0.4164545594E-03      0.9266816386E-03

    ------------------------------------------------
       NWT REQUIRED            4 OUTER ITERATIONS 
       AND A TOTAL OF          7 INNER ITERATIONS.
    ------------------------------------------------

 NO OUTPUT CONTROL FOR STRESS PERIOD   13   TIME STEP   17
 
 SOLVING FOR HEAD 
                                                   Max.-Head-Change                         Max.-Flux-Residual
  Residual-Control   Outer-Iter.   Inner-Iter.     Column Row Layer    Maximum-Head-Change  Column Row Layer    Maximum-Flux-Residual          L2-NORM 
          0                 1           2             4    7     1       0.2731745395E-01       4    7    1         0.1436828325E+01      0.3204290549E+01
          0                 2           2             4    7     1      -0.2657259669E-02       4    7    1        -0.1436839370E+00      0.3204276237E+00
          0                 3           2             4    7     1       0.1809493729E-03       4    7    1         0.1005786949E-01      0.2242974548E-01
          0                 4           1             4    7     1      -0.7200145519E-05       4    7    1        -0.4113674795E-03      0.9173785438E-03

    ------------------------------------------------
       NWT REQUIRED            4 OUTER ITERATIONS 
       AND A TOTAL OF          7 INNER ITERATIONS.
    ------------------------------------------------

 NO OUTPUT CONTROL FOR STRESS PERIOD   13   TIME STEP   18
 
 SOLVING FOR HEAD 
                                                   Max.-Head-Change                         Max.-Flux-Residual
  Residual-Control   Outer-Iter.   Inner-Iter.     Column Row Layer    Maximum-Head-Change  Column Row Layer    Maximum-Flux-Residual          L2-NORM 
          0                 1           2             4    7     1       0.2698688465E-01       4    7    1         0.1419355731E+01      0.3172234327E+01
          0                 2           2             4    7     1      -0.2625103880E-02       4    7    1        -0.1419366498E+00      0.3172220331E+00
          0                 3           2             4    7     1       0.1787596871E-03       4    7    1         0.9935559601E-02      0.2220536001E-01
          0                 4           1             4    7     1      -0.7113015915E-05       4    7    1        -0.4063649985E-03      0.9081911607E-03

    ------------------------------------------------
       NWT REQUIRED            4 OUTER ITERATIONS 
       AND A TOTAL OF          7 INNER ITERATIONS.
    ------------------------------------------------

 NO OUTPUT CONTROL FOR STRESS PERIOD   13   TIME STEP   19
 
 SOLVING FOR HEAD 
                                                   Max.-Head-Change                         Max.-Flux-Residual
  Residual-Control   Outer-Iter.   Inner-Iter.     Column Row Layer    Maximum-Head-Change  Column Row Layer    Maximum-Flux-Residual          L2-NORM 
          0                 1           2             4    7     1       0.2666203798E-01       4    7    1         0.1402186919E+01      0.3140669023E+01
          0                 2           2             4    7     1      -0.2593505141E-02       4    7    1        -0.1402197415E+00      0.3140643434E+00
          0                 3           2             4    7     1       0.1766083054E-03       4    7    1         0.9815376218E-02      0.2199346273E-01
          0                 4           1             4    7     1      -0.7027410370E-05       4    7    1        -0.4014494889E-03      0.8995162460E-03

    ------------------------------------------------
       NWT REQUIRED            4 OUTER ITERATIONS 
       AND A TOTAL OF          7 INNER ITERATIONS.
    ------------------------------------------------

 NO OUTPUT CONTROL FOR STRESS PERIOD   13   TIME STEP   20
 
 SOLVING FOR HEAD 
                                                   Max.-Head-Change                         Max.-Flux-Residual
  Residual-Control   Outer-Iter.   Inner-Iter.     Column Row Layer    Maximum-Head-Change  Column Row Layer    Maximum-Flux-Residual          L2-NORM 
          0                 1           2             4    7     1       0.2634278524E-01       4    7    1         0.1385314814E+01      0.3109594767E+01
          0                 2           2             4    7     1      -0.2562445874E-02       4    7    1        -0.1385325048E+00      0.3108646880E+00
          0                 3           2             4    7     1       0.1744929168E-03       4    7    1         0.9697269844E-02      0.2176034978E-01
          0                 4           1             4    7     1      -0.6943237243E-05       4    7    1        -0.3966189388E-03      0.8899908407E-03

    ------------------------------------------------
       NWT REQUIRED            4 OUTER ITERATIONS 
       AND A TOTAL OF          7 INNER ITERATIONS.
    ------------------------------------------------

 NO OUTPUT CONTROL FOR STRESS PERIOD   13   TIME STEP   21
 
 SOLVING FOR HEAD 
                                                   Max.-Head-Change                         Max.-Flux-Residual
  Residual-Control   Outer-Iter.   Inner-Iter.     Column Row Layer    Maximum-Head-Change  Column Row Layer    Maximum-Flux-Residual          L2-NORM 
          0                 1           2             4    7     1       0.2602874599E-01       4    7    1         0.1368718342E+01      0.3079073942E+01
          0                 2           2             4    7     1      -0.2531901955E-02       4    7    1        -0.1368728320E+00      0.3079061247E+00
          0                 3           2             4    7     1       0.1724129928E-03       4    7    1         0.9581092940E-02      0.2155326778E-01
          0                 4           1             4    7     1      -0.6860475120E-05       4    7    1        -0.3918672955E-03      0.8815240965E-03

    ------------------------------------------------
       NWT REQUIRED            4 OUTER ITERATIONS 
       AND A TOTAL OF          7 INNER ITERATIONS.
    ------------------------------------------------

 NO OUTPUT CONTROL FOR STRESS PERIOD   13   TIME STEP   22
 
 SOLVING FOR HEAD 
                                                   Max.-Head-Change                         Max.-Flux-Residual
  Residual-Control   Outer-Iter.   Inner-Iter.     Column Row Layer    Maximum-Head-Change  Column Row Layer    Maximum-Flux-Residual          L2-NORM 
          0                 1           2             4    7     1       0.2572006958E-01       4    7    1         0.1352406374E+01      0.3049023979E+01
          0                 2           2             4    7     1      -0.2501875791E-02       4    7    1        -0.1352416103E+00      0.3049011348E+00
          0                 3           2             4    7     1       0.1703683258E-03       4    7    1         0.9466907612E-02      0.2134290457E-01
          0                 4           1             4    7     1      -0.6779115826E-05       4    7    1        -0.3871970962E-03      0.8729042304E-03

    ------------------------------------------------
       NWT REQUIRED            4 OUTER ITERATIONS 
       AND A TOTAL OF          7 INNER ITERATIONS.
    ------------------------------------------------

 NO OUTPUT CONTROL FOR STRESS PERIOD   13   TIME STEP   23
 
 SOLVING FOR HEAD 
                                                   Max.-Head-Change                         Max.-Flux-Residual
  Residual-Control   Outer-Iter.   Inner-Iter.     Column Row Layer    Maximum-Head-Change  Column Row Layer    Maximum-Flux-Residual          L2-NORM 
          0                 1           2             4    7     1       0.2541650637E-01       4    7    1         0.1336365361E+01      0.3019426672E+01
          0                 2           2             4    7     1      -0.2472347013E-02       4    7    1        -0.1336374848E+00      0.3019414296E+00
          0                 3           2             4    7     1       0.1683575291E-03       4    7    1         0.9354619010E-02      0.2113573979E-01
          0                 4           1             4    7     1      -0.6699104216E-05       4    7    1        -0.3826044922E-03      0.8644536921E-03

    ------------------------------------------------
       NWT REQUIRED            4 OUTER ITERATIONS 
       AND A TOTAL OF          7 INNER ITERATIONS.
    ------------------------------------------------

 NO OUTPUT CONTROL FOR STRESS PERIOD   13   TIME STEP   24
 
 SOLVING FOR HEAD 
                                                   Max.-Head-Change                         Max.-Flux-Residual
  Residual-Control   Outer-Iter.   Inner-Iter.     Column Row Layer    Maximum-Head-Change  Column Row Layer    Maximum-Flux-Residual          L2-NORM 
          0                 1           2             4    7     1       0.2511794994E-01       4    7    1         0.1320589457E+01      0.2990276119E+01
          0                 2           2             4    7     1      -0.2443305293E-02       4    7    1        -0.1320598710E+00      0.2990264170E+00
          0                 3           2             4    7     1       0.1663798984E-03       4    7    1         0.9244186203E-02      0.2093169678E-01
          0                 4           1             4    7     1      -0.6620412544E-05       4    7    1        -0.3780877869E-03      0.8560968360E-03

    ------------------------------------------------
       NWT REQUIRED            4 OUTER ITERATIONS 
       AND A TOTAL OF          7 INNER ITERATIONS.
    ------------------------------------------------

 NO OUTPUT CONTROL FOR STRESS PERIOD   13   TIME STEP   25
 
 SOLVING FOR HEAD 
                                                   Max.-Head-Change                         Max.-Flux-Residual
  Residual-Control   Outer-Iter.   Inner-Iter.     Column Row Layer    Maximum-Head-Change  Column Row Layer    Maximum-Flux-Residual          L2-NORM 
          0                 1           2             4    7     1       0.2482442154E-01       4    7    1         0.1305080452E+01      0.2961553272E+01
          0                 2           2             4    7     1      -0.2414752680E-02       4    7    1        -0.1305089476E+00      0.2961541820E+00
          0                 3           2             4    7     1       0.1644355746E-03       4    7    1         0.9135621744E-02      0.2073060831E-01
          0                 4           1             4    7     1      -0.6543045991E-05       4    7    1        -0.3736474905E-03      0.8479002919E-03

    ------------------------------------------------
       NWT REQUIRED            4 OUTER ITERATIONS 
       AND A TOTAL OF          7 INNER ITERATIONS.
    ------------------------------------------------

 NO OUTPUT CONTROL FOR STRESS PERIOD   13   TIME STEP   26
 
 SOLVING FOR HEAD 
                                                   Max.-Head-Change                         Max.-Flux-Residual
  Residual-Control   Outer-Iter.   Inner-Iter.     Column Row Layer    Maximum-Head-Change  Column Row Layer    Maximum-Flux-Residual          L2-NORM 
          0                 1           2             4    7     1       0.2453581357E-01       4    7    1         0.1289832140E+01      0.2933263418E+01
          0                 2           2             4    7     1      -0.2386678666E-02       4    7    1        -0.1289840942E+00      0.2933252009E+00
          0                 3           2             4    7     1       0.1625238414E-03       4    7    1         0.9028882167E-02      0.2053261690E-01
          0                 4           1             4    7     1      -0.6466976119E-05       4    7    1        -0.3692818309E-03      0.8397803068E-03

    ------------------------------------------------
       NWT REQUIRED            4 OUTER ITERATIONS 
       AND A TOTAL OF          7 INNER ITERATIONS.
    ------------------------------------------------

 NO OUTPUT CONTROL FOR STRESS PERIOD   13   TIME STEP   27
 
 SOLVING FOR HEAD 
                                                   Max.-Head-Change                         Max.-Flux-Residual
  Residual-Control   Outer-Iter.   Inner-Iter.     Column Row Layer    Maximum-Head-Change  Column Row Layer    Maximum-Flux-Residual          L2-NORM 
          0                 1           2             4    7     1       0.2425201257E-01       4    7    1         0.1274838947E+01      0.2905388318E+01
          0                 2           2             4    7     1      -0.2359072248E-02       4    7    1        -0.1274847533E+00      0.2905376920E+00
          0                 3           2             4    7     1       0.1606439502E-03       4    7    1         0.8923928469E-02      0.2033748715E-01
          0                 4           1             4    7     1      -0.6392173803E-05       4    7    1        -0.3649892255E-03      0.8318028801E-03

    ------------------------------------------------
       NWT REQUIRED            4 OUTER ITERATIONS 
       AND A TOTAL OF          7 INNER ITERATIONS.
    ------------------------------------------------

 NO OUTPUT CONTROL FOR STRESS PERIOD   13   TIME STEP   28
 
 SOLVING FOR HEAD 
                                                   Max.-Head-Change                         Max.-Flux-Residual
  Residual-Control   Outer-Iter.   Inner-Iter.     Column Row Layer    Maximum-Head-Change  Column Row Layer    Maximum-Flux-Residual          L2-NORM 
          0                 1           2             4    7     1       0.2397278010E-01       4    7    1         0.1260087677E+01      0.2877918270E+01
          0                 2           2             4    7     1      -0.2331910232E-02       4    7    1        -0.1260096054E+00      0.2877906832E+00
          0                 3           2             4    7     1       0.1587943200E-03       4    7    1         0.8820668252E-02      0.2014519338E-01
          0                 4           1             4    7     1      -0.6318575261E-05       4    7    1        -0.3607658632E-03      0.8239698847E-03

    ------------------------------------------------
       NWT REQUIRED            4 OUTER ITERATIONS 
       AND A TOTAL OF          7 INNER ITERATIONS.
    ------------------------------------------------

 NO OUTPUT CONTROL FOR STRESS PERIOD   13   TIME STEP   29
 
 SOLVING FOR HEAD 
                                                   Max.-Head-Change                         Max.-Flux-Residual
  Residual-Control   Outer-Iter.   Inner-Iter.     Column Row Layer    Maximum-Head-Change  Column Row Layer    Maximum-Flux-Residual          L2-NORM 
          0                 1           2             4    7     1       0.2369815728E-01       4    7    1         0.1245580585E+01      0.2850858656E+01
          0                 2           2             4    7     1      -0.2305196618E-02       4    7    1        -0.1245588758E+00      0.2850847348E+00
          0                 3           2             4    7     1       0.1569752253E-03       4    7    1         0.8719117338E-02      0.1995576236E-01
          0                 4           1             4    7     1      -0.6246191660E-05       4    7    1        -0.3566124333E-03      0.8161777072E-03

    ------------------------------------------------
       NWT REQUIRED            4 OUTER ITERATIONS 
       AND A TOTAL OF          7 INNER ITERATIONS.
    ------------------------------------------------

 NO OUTPUT CONTROL FOR STRESS PERIOD   13   TIME STEP   30



 STREAM LISTING     PERIOD     13   STEP       30

 LAYER ROW COL. STREAM  RCH.  FLOW INTO     FLOW TO   FLOW OUT OF   OVRLND.     DIRECT     STREAM       STREAM     STREAM     STREAM   STREAMBED  STREAMBED
                SEG.NO.  NO.  STRM. RCH.    AQUIFER    STRM. RCH.    RUNOFF     PRECIP       ET          HEAD       DEPTH      WIDTH   CONDCTNC.   GRADIENT

   1    1    1     1     1    8.6249E+00  1.3546E-01   8.4895E+00  0.000E+00  0.000E+00  0.000E+00  1.09390E+03  8.549E-01  7.809E+00  3.514E-02  1.285E+00
   1    2    2     1     2    8.4895E+00  2.0809E-01   8.2814E+00  0.000E+00  0.000E+00  0.000E+00  1.08891E+03  8.492E-01  7.723E+00  5.406E-02  1.283E+00
   1    3    3     1     3    8.2814E+00  1.7583E-01   8.1056E+00  0.000E+00  0.000E+00  0.000E+00  1.08326E+03  8.427E-01  7.626E+00  4.576E-02  1.281E+00
   1    3    4     1     4    8.1056E+00  1.6058E-01   7.9450E+00  0.000E+00  0.000E+00  0.000E+00  1.07824E+03  8.369E-01  7.541E+00  4.185E-02  1.279E+00
   1    4    5     2     1    5.9450E+00  2.7323E-01   5.6717E+00  0.000E+00  0.000E+00  0.000E+00  1.07244E+03  5.030E-01  1.200E+01  7.800E-02  1.168E+00
   1    5    6     2     2    5.6717E+00  2.0942E-01   5.4623E+00  0.000E+00  0.000E+00  0.000E+00  1.06700E+03  4.904E-01  1.200E+01  6.000E-02  1.163E+00
   1    6    6     2     3    5.4623E+00  2.0875E-01   5.2536E+00  0.000E+00  0.000E+00  0.000E+00  1.06227E+03  4.792E-01  1.200E+01  6.000E-02  1.160E+00
   1    7    6     2     4    5.2536E+00  2.0808E-01   5.0455E+00  0.000E+00  0.000E+00  0.000E+00  1.05754E+03  4.680E-01  1.200E+01  6.000E-02  1.156E+00
   1    8    6     2     5    5.0455E+00  2.0739E-01   4.8381E+00  0.000E+00  0.000E+00  0.000E+00  1.05282E+03  4.565E-01  1.200E+01  6.000E-02  1.152E+00
   1    3    5     3     1    2.0000E+00  2.8252E-01   1.7175E+00  0.000E+00  0.000E+00  0.000E+00  1.07555E+03  1.909E+00  9.636E+00  7.227E-02  1.955E+00
   1    3    6     3     2    1.7175E+00  2.4905E-01   1.4684E+00  0.000E+00  0.000E+00  0.000E+00  1.07264E+03  1.727E+00  8.909E+00  6.682E-02  1.864E+00
   1    3    7     3     3    1.4684E+00  1.9718E-01   1.2712E+00  0.000E+00  0.000E+00  0.000E+00  1.06987E+03  1.555E+00  8.218E+00  5.547E-02  1.777E+00
   1    4    8     3     4    1.2712E+00  2.2567E-01   1.0456E+00  0.000E+00  0.000E+00  0.000E+00  1.06682E+03  1.364E+00  7.455E+00  6.709E-02  1.682E+00
   1    5    8     3     5    1.0456E+00  1.5790E-01   8.8768E-01  0.000E+00  0.000E+00  0.000E+00  1.06362E+03  1.164E+00  6.655E+00  4.991E-02  1.582E+00
   1    6    8     3     6    8.8768E-01  5.5980E-02   8.3170E-01  0.000E+00  0.000E+00  0.000E+00  1.06158E+03  1.036E+00  6.145E+00  1.844E-02  1.518E+00
   1    5   10     4     1    1.0000E+01  9.0919E-02   9.9091E+00  0.000E+00  0.000E+00  0.000E+00  1.07836E+03  6.368E-01  1.000E+01  2.500E-02  1.212E+00
   1    5    9     4     2    9.9091E+00  1.8158E-01   9.7275E+00  0.000E+00  0.000E+00  0.000E+00  1.07154E+03  6.315E-01  1.000E+01  5.000E-02  1.211E+00
   1    6    8     4     3    9.7275E+00  1.2689E-01   9.6006E+00  0.000E+00  0.000E+00  0.000E+00  1.06381E+03  6.256E-01  1.000E+01  3.500E-02  1.209E+00
   1    6    8     5     1    1.0432E+01  2.2686E-01   1.0205E+01  0.000E+00  0.000E+00  0.000E+00  1.05868E+03  6.790E-01  1.542E+01  6.166E-02  1.226E+00
   1    7    7     5     2    1.0205E+01  2.7894E-01   9.9265E+00  0.000E+00  0.000E+00  0.000E+00  1.05417E+03  6.732E-01  1.519E+01  7.594E-02  1.224E+00
   1    8    7     5     3    9.9265E+00  1.9221E-01   9.7343E+00  0.000E+00  0.000E+00  0.000E+00  1.04992E+03  6.676E-01  1.497E+01  5.241E-02  1.223E+00
   1    8    6     5     4    9.7343E+00  1.3577E-01   9.5985E+00  0.000E+00  0.000E+00  0.000E+00  1.04691E+03  6.637E-01  1.482E+01  3.706E-02  1.221E+00
   1    9    6     6     1    1.4437E+01  2.3244E-01   1.4204E+01  0.000E+00  0.000E+00  0.000E+00  1.04360E+03  8.741E-01  1.200E+01  6.000E-02  1.291E+00
   1   10    7     6     2    1.4204E+01  2.3193E-01   1.3972E+01  0.000E+00  0.000E+00  0.000E+00  1.03905E+03  8.655E-01  1.200E+01  6.000E-02  1.289E+00
   1   11    7     6     3    1.3972E+01  2.3142E-01   1.3741E+01  0.000E+00  0.000E+00  0.000E+00  1.03449E+03  8.570E-01  1.200E+01  6.000E-02  1.286E+00
   1   12    7     6     4    1.3741E+01  2.3090E-01   1.3510E+01  0.000E+00  0.000E+00  0.000E+00  1.02994E+03  8.484E-01  1.200E+01  6.000E-02  1.283E+00
   1   13    7     6     5    1.3510E+01 -1.2549E-02   1.3522E+01  0.000E+00  0.000E+00  0.000E+00  1.02675E+03  8.443E-01  1.200E+01  2.400E-01 -1.743E-02
   1   14    9     7     1    1.5000E+02  1.3696E+00   1.4863E+02  0.000E+00  0.000E+00  0.000E+00  1.03987E+03  2.288E+00  5.529E+01  5.593E-01  8.163E-01
   1   13    8     7     2    1.4863E+02  1.9231E+00   1.4671E+02  0.000E+00  0.000E+00  0.000E+00  1.03478E+03  2.279E+00  5.525E+01  6.148E-01  1.043E+00
   1   13    7     7     3    1.4671E+02  1.6099E+00   1.4510E+02  0.000E+00  0.000E+00  0.000E+00  1.02969E+03  2.269E+00  5.521E+01  5.584E-01  9.610E-01
   1   13    6     8     1    1.5862E+02  1.0003E+00   1.5762E+02  0.000E+00  0.000E+00  0.000E+00  1.02475E+03  2.873E+00  4.166E+01  4.245E-01  7.854E-01
   1   13    5     8     2    1.5762E+02  2.6397E-01   1.5736E+02  0.000E+00  0.000E+00  0.000E+00  1.01849E+03  2.869E+00  4.160E+01  4.239E-01  2.076E-01
   1   13    4     8     3    1.5736E+02 -2.1067E+00   1.5946E+02  0.000E+00  0.000E+00  0.000E+00  1.01225E+03  2.875E+00  4.169E+01  4.248E+00 -1.653E-01
   1   13    3     8     4    1.5946E+02 -3.4968E+00   1.6296E+02  0.000E+00  0.000E+00  0.000E+00  1.00602E+03  2.894E+00  4.196E+01  4.276E+00 -2.726E-01
   1   13    2     8     5    1.6296E+02 -2.5461E+00   1.6551E+02  0.000E+00  0.000E+00  0.000E+00  9.99789E+02  2.914E+00  4.226E+01  4.306E+00 -1.971E-01
   1   13    1     8     6    1.6551E+02 -1.9734E+00   1.6748E+02  0.000E+00  0.000E+00  0.000E+00  9.94804E+02  2.929E+00  4.247E+01  2.597E+00 -2.533E-01
   1    8    6     9     1    0.0000E+00  0.0000E+00   0.0000E+00  0.000E+00  0.000E+00  0.000E+00  1.07875E+03  0.000E+00  4.000E+00  0.000E+00  1.000E+00
   1    8    5     9     2    0.0000E+00  0.0000E+00   0.0000E+00  0.000E+00  0.000E+00  0.000E+00  1.07825E+03  0.000E+00  4.000E+00  0.000E+00  1.000E+00





UNSATURATED ZONE PACKAGE VOLUMETRIC BUDGET FOR  TIME STEP    30 STRESS PERIOD   13
  ------------------------------------------------------------------------------



     CUMULATIVE VOLUMES      L**3       RATES FOR THIS TIME STEP      L**3/T
     ------------------                 ------------------------

           IN:                                      IN:
           ---                                      ---
        INFILTRATION =   671436364.7953          INFILTRATION =           0.8475

          OUT:                                     OUT:
          ----                                     ----
              UZF ET =   432200383.8713                UZF ET =           0.7500
        UZF RECHARGE =       73224.0000          UZF RECHARGE =       0.0000E+00

            IN - OUT =   239162756.9240              IN - OUT =       9.7500E-02

          STORAGE:                                 STORAGE:
          --------                                 --------
      STORAGE CHANGE =   239163105.4487        STORAGE CHANGE =       9.7500E-02

 PERCENT DISCREPANCY IS DIFFERENCE BETWEEN IN-OUT MINUS CHANGE IN STORAGE
 DIVIDED BY THE AVERAGE OF IN AND OUT TIMES 100

 PERCENT DISCREPANCY =          -0.00     PERCENT DISCREPANCY =           0.00






1
  VOLUMETRIC BUDGET FOR AGRICULTURAL FIELDS AT  END OF TIME STEP   30, STRESS PERIOD  13
  ------------------------------------------------------------------------------

     CUMULATIVE VOLUMES      L**3       RATES FOR THIS TIME STEP      L**3/T
     ------------------                 ------------------------

           IN:                                      IN:
           ---                                      ---
               AG WELLS  =   429841792.0000                 AG WELLS  =           0.0000
      DIVERSION SEGMENTS =   214830320.0000        DIVERSION SEGMENTS =           0.0000
       IRRIGATION PONDS  =           0.0000         IRRIGATION PONDS  =           0.0000
           GW IRRIGATION =           0.0000             GW IRRIGATION =           0.0000
           SW IRRIGATION =           0.0000             SW IRRIGATION =           0.0000
        SYSTEM LOSSES GW =           0.0000          SYSTEM LOSSES GW =           0.0000
        SYSTEM LOSSES SW =           0.0000          SYSTEM LOSSES SW =           0.0000

                TOTAL IN =   644672128.0000                  TOTAL IN =           0.0000

          OUT:                                     OUT:
          ----                                     ----
               AG WELLS  =           0.0000                 AG WELLS  =           0.0000
      DIVERSION SEGMENTS =           0.0000        DIVERSION SEGMENTS =           0.0000
       IRRIGATION PONDS  =           0.0000         IRRIGATION PONDS  =           0.0000
           GW IRRIGATION =   429841792.0000             GW IRRIGATION =           0.0000
           SW IRRIGATION =   214834512.0000             SW IRRIGATION =           0.0000
        SYSTEM LOSSES GW =           0.0000          SYSTEM LOSSES GW =           0.0000
        SYSTEM LOSSES SW =           0.0000          SYSTEM LOSSES SW =           0.0000

               TOTAL OUT =   644676288.0000                 TOTAL OUT =           0.0000

                IN - OUT =       -4160.0000                  IN - OUT =           0.0000

     PERCENT DISCREPANCY =          -0.00         PERCENT DISCREPANCY =           0.00



1
  VOLUMETRIC BUDGET FOR ENTIRE MODEL AT END OF TIME STEP   30, STRESS PERIOD  13
  ------------------------------------------------------------------------------

     CUMULATIVE VOLUMES      L**3       RATES FOR THIS TIME STEP      L**3/T
     ------------------                 ------------------------

           IN:                                      IN:
           ---                                      ---
             STORAGE     =   660425984.0000               STORAGE     =           7.8374
       CONSTANT HEAD     =           0.0000         CONSTANT HEAD     =           0.0000
     HEAD DEP BOUNDS     =     9112154.0000       HEAD DEP BOUNDS     =           0.2881
      STREAM LEAKAGE     =   370867136.0000        STREAM LEAKAGE     =          11.2819
        UZF RECHARGE     =       73223.9531          UZF RECHARGE     =           0.0000
               GW ET     =           0.0000                 GW ET     =           0.0000
     SURFACE LEAKAGE     =           0.0000       SURFACE LEAKAGE     =           0.0000
           AG WELLS      =           0.0000             AG WELLS      =           0.0000

                TOTAL IN =  1040478464.0000                  TOTAL IN =          19.4074

          OUT:                                     OUT:
          ----                                     ----
             STORAGE     =   275105952.0000               STORAGE     =           8.9845
       CONSTANT HEAD     =           0.0000         CONSTANT HEAD     =           0.0000
     HEAD DEP BOUNDS     =     9113698.0000       HEAD DEP BOUNDS     =           0.2874
      STREAM LEAKAGE     =   326419424.0000        STREAM LEAKAGE     =          10.1355
        UZF RECHARGE     =           0.0000          UZF RECHARGE     =           0.0000
               GW ET     =           0.0000                 GW ET     =           0.0000
     SURFACE LEAKAGE     =           0.0000       SURFACE LEAKAGE     =           0.0000
           AG WELLS      =   429841792.0000             AG WELLS      =           0.0000

               TOTAL OUT =  1040480896.0000                 TOTAL OUT =          19.4074

                IN - OUT =       -2432.0000                  IN - OUT =       7.6294E-06

     PERCENT DISCREPANCY =          -0.00         PERCENT DISCREPANCY =           0.00






         TIME SUMMARY AT END OF TIME STEP   30 IN STRESS PERIOD   13
                    SECONDS     MINUTES      HOURS       DAYS        YEARS
                    -----------------------------------------------------------
   TIME STEP LENGTH  87667.      1461.1      24.352      1.0147     2.77799E-03
 STRESS PERIOD TIME 2.63000E+06  43833.      730.56      30.440     8.33397E-02
         TOTAL TIME 3.16463E+07 5.27439E+05  8790.6      366.28      1.0028    
1
1
                            STRESS PERIOD NO.   14, LENGTH =   2630000.    
                            -----------------------------------------------

                              NUMBER OF TIME STEPS =    30

                               MULTIPLIER FOR DELT =     1.000

                            INITIAL TIME STEP SIZE =   87666.66    

 REUSING NON-PARAMETER GHB CELLS FROM LAST STRESS PERIOD

      2 GHB CELLS

 REUSING STREAM SEGMENT DATA FROM LAST STRESS PERIOD



            AREAL INFILTRATION RATE
 READING ON UNIT   19 WITH FORMAT: (FREE)              

            1           2           3           4           5           6           7           8           9          10
 ........................................................................................................................
   1   1.0000E-10  2.0000E-10   0.000       0.000       0.000       0.000       0.000       0.000       0.000       0.000    
   2   2.0000E-10  1.0000E-10  2.0000E-10   0.000       0.000      8.0000E-10  8.0000E-10  5.0000E-10   0.000       0.000    
   3    0.000      5.0000E-10  1.0000E-10  1.0000E-10  8.0000E-10  8.0000E-10  5.0000E-10  5.0000E-10   0.000       0.000    
   4   8.0000E-10  5.0000E-10  1.0000E-10  1.0000E-10  1.0000E-10  1.0000E-10  1.0000E-10  1.0000E-10  2.0000E-10   0.000    
   5   8.0000E-10  5.0000E-10  1.0000E-10  1.0000E-10  1.0000E-10  1.0000E-10  1.0000E-10  1.0000E-10  1.0000E-10  1.0000E-10
   6   8.0000E-10  5.0000E-10  5.0000E-10  2.0000E-10  2.0000E-10  1.0000E-10  1.0000E-10  1.0000E-10  1.0000E-10  5.0000E-10
   7   8.0000E-10  5.0000E-10  5.0000E-10  2.0000E-10  2.0000E-10  1.0000E-10  1.0000E-10  2.0000E-10  2.0000E-10   0.000    
   8    0.000      5.0000E-10  5.0000E-10  2.0000E-10  2.0000E-10  1.0000E-10  1.0000E-10  2.0000E-10  5.0000E-10   0.000    
   9    0.000      5.0000E-10  5.0000E-10  2.0000E-10  2.0000E-10  1.0000E-10  1.0000E-10  2.0000E-10  5.0000E-10   0.000    
  10    0.000      5.0000E-10  5.0000E-10  2.0000E-10  2.0000E-10  1.0000E-10  1.0000E-10  2.0000E-10  5.0000E-10  8.0000E-10
  11    0.000      1.0000E-10  1.0000E-10  1.0000E-10  1.0000E-10  1.0000E-10  1.0000E-10  2.0000E-10  5.0000E-10   0.000    
  12   1.0000E-10  1.0000E-10  1.0000E-10  1.0000E-10  1.0000E-10  1.0000E-10  1.0000E-10  1.0000E-10  2.0000E-10   0.000    
  13   1.0000E-10  1.0000E-10  2.0000E-10  2.0000E-10  2.0000E-10  2.0000E-10  2.0000E-10  1.0000E-10  1.0000E-10   0.000    
  14    0.000      2.0000E-10  5.0000E-10  5.0000E-10  5.0000E-10  5.0000E-10  5.0000E-10  2.0000E-10  1.0000E-10   0.000    
  15    0.000       0.000      8.0000E-10  8.0000E-10  8.0000E-10  8.0000E-10   0.000       0.000       0.000       0.000    

                  ET RATE =  5.000000E-10

 USING ET EXTINCTION DEPTH FROM PREVIOUS STRESS PERIOD. CURRENT PERIOD IS:      14

 USING EXTINCTION WATER CONTENT FROM PREVIOUS STRESS PERIOD. CURRENT PERIOD IS:      14

 USING AIR ENTRY PRESSURE FROM PREVIOUS STRESS PERIOD. CURRENT PERIOD IS:      14

 USING ROOT PRESSURE HEAD FROM PREVIOUS STRESS PERIOD. CURRENT PERIOD IS:      14

 USING ROOT ACTIVITY FROM PREVIOUS STRESS PERIOD. CURRENT PERIOD IS:      14

 PROCESSING AG STRESS PERIOD DATA

 READING AG STRESS PERIOD DATA

 READING IRRIGATION SEGMENT

 READING IRRIGATION WELL

 READING SUPPLEMENTAL WELL

 NO IRRPOND OR REUSING IRRPOND DATA FROM LAST STRESS PERIOD

 END PROCESSING AG STRESS PERIOD DATA OPTIONS
 
 SOLVING FOR HEAD 
                                                   Max.-Head-Change                         Max.-Flux-Residual
  Residual-Control   Outer-Iter.   Inner-Iter.     Column Row Layer    Maximum-Head-Change  Column Row Layer    Maximum-Flux-Residual          L2-NORM 
          0                 1           2             4    7     1       0.2342802771E-01       4    7    1         0.1231312496E+01      0.2825763418E+01
          0                 2           2             4    7     1      -0.2278920084E-02       4    7    1        -0.1231320470E+00      0.2825730836E+00
          0                 3           2             4    7     1       0.1551858938E-03       4    7    1         0.8619239470E-02      0.1977980209E-01
          0                 4           1             4    7     1      -0.6174992723E-05       4    7    1        -0.3525274346E-03      0.8089802226E-03

    ------------------------------------------------
       NWT REQUIRED            4 OUTER ITERATIONS 
       AND A TOTAL OF          7 INNER ITERATIONS.
    ------------------------------------------------

 NO OUTPUT CONTROL FOR STRESS PERIOD   14   TIME STEP    1
 
 SOLVING FOR HEAD 
                                                   Max.-Head-Change                         Max.-Flux-Residual
  Residual-Control   Outer-Iter.   Inner-Iter.     Column Row Layer    Maximum-Head-Change  Column Row Layer    Maximum-Flux-Residual          L2-NORM 
          0                 1           2             4    7     1       0.2316228423E-01       4    7    1         0.1217277373E+01      0.2802379285E+01
          0                 2           2             4    7     1      -0.2253070204E-02       4    7    1        -0.1217285155E+00      0.2802298024E+00
          0                 3           2             4    7     1       0.1534256155E-03       4    7    1         0.8520992409E-02      0.1961532732E-01
          0                 4           1             4    7     1      -0.6104949436E-05       4    7    1        -0.3485091152E-03      0.8022304280E-03

    ------------------------------------------------
       NWT REQUIRED            4 OUTER ITERATIONS 
       AND A TOTAL OF          7 INNER ITERATIONS.
    ------------------------------------------------

 NO OUTPUT CONTROL FOR STRESS PERIOD   14   TIME STEP    2
 
 SOLVING FOR HEAD 
                                                   Max.-Head-Change                         Max.-Flux-Residual
  Residual-Control   Outer-Iter.   Inner-Iter.     Column Row Layer    Maximum-Head-Change  Column Row Layer    Maximum-Flux-Residual          L2-NORM 
          0                 1           2             4    7     1       0.2290082851E-01       4    7    1         0.1203469662E+01      0.2776334751E+01
          0                 2           2             4    7     1      -0.2227637415E-02       4    7    1        -0.1203477256E+00      0.2776260561E+00
          0                 3           2             4    7     1       0.1516937394E-03       4    7    1         0.8424337252E-02      0.1943313444E-01
          0                 4           1             4    7     1      -0.6036036357E-05       4    7    1        -0.3445559068E-03      0.7947801071E-03

    ------------------------------------------------
       NWT REQUIRED            4 OUTER ITERATIONS 
       AND A TOTAL OF          7 INNER ITERATIONS.
    ------------------------------------------------

 NO OUTPUT CONTROL FOR STRESS PERIOD   14   TIME STEP    3
 
 SOLVING FOR HEAD 
                                                   Max.-Head-Change                         Max.-Flux-Residual
  Residual-Control   Outer-Iter.   Inner-Iter.     Column Row Layer    Maximum-Head-Change  Column Row Layer    Maximum-Flux-Residual          L2-NORM 
          0                 1           2             4    7     1       0.2264356746E-01       4    7    1         0.1189884262E+01      0.2750670887E+01
          0                 2           2             4    7     1      -0.2202612659E-02       4    7    1        -0.1189891675E+00      0.2750602229E+00
          0                 3           2             4    7     1       0.1499896489E-03       4    7    1         0.8329238305E-02      0.1925355423E-01
          0                 4           1             4    7     1      -0.5968229194E-05       4    7    1        -0.3406663573E-03      0.7874306225E-03

    ------------------------------------------------
       NWT REQUIRED            4 OUTER ITERATIONS 
       AND A TOTAL OF          7 INNER ITERATIONS.
    ------------------------------------------------

 NO OUTPUT CONTROL FOR STRESS PERIOD   14   TIME STEP    4
 
 SOLVING FOR HEAD 
                                                   Max.-Head-Change                         Max.-Flux-Residual
  Residual-Control   Outer-Iter.   Inner-Iter.     Column Row Layer    Maximum-Head-Change  Column Row Layer    Maximum-Flux-Residual          L2-NORM 
          0                 1           2             4    7     1       0.2239041352E-01       4    7    1         0.1176516349E+01      0.2725390660E+01
          0                 2           2             4    7     1      -0.2177987422E-02       4    7    1        -0.1176523584E+00      0.2725327179E+00
          0                 3           2             4    7     1       0.1483127642E-03       4    7    1         0.8235661805E-02      0.1907669294E-01
          0                 4           1             4    7     1      -0.5901504345E-05       4    7    1        -0.3368390753E-03      0.7802128053E-03

    ------------------------------------------------
       NWT REQUIRED            4 OUTER ITERATIONS 
       AND A TOTAL OF          7 INNER ITERATIONS.
    ------------------------------------------------

 NO OUTPUT CONTROL FOR STRESS PERIOD   14   TIME STEP    5
 
 SOLVING FOR HEAD 
                                                   Max.-Head-Change                         Max.-Flux-Residual
  Residual-Control   Outer-Iter.   Inner-Iter.     Column Row Layer    Maximum-Head-Change  Column Row Layer    Maximum-Flux-Residual          L2-NORM 
          0                 1           2             4    7     1       0.2214140997E-01       4    7    1         0.1163368694E+01      0.2700471851E+01
          0                 2           2             4    7     1      -0.2153765912E-02       4    7    1        -0.1163375757E+00      0.2700413108E+00
          0                 3           2             4    7     1       0.1466633714E-03       4    7    1         0.8143627147E-02      0.1890230704E-01
          0                 4           1             4    7     1      -0.5835873094E-05       4    7    1        -0.3330748264E-03      0.7730628894E-03

    ------------------------------------------------
       NWT REQUIRED            4 OUTER ITERATIONS 
       AND A TOTAL OF          7 INNER ITERATIONS.
    ------------------------------------------------

 NO OUTPUT CONTROL FOR STRESS PERIOD   14   TIME STEP    6
 
 SOLVING FOR HEAD 
                                                   Max.-Head-Change                         Max.-Flux-Residual
  Residual-Control   Outer-Iter.   Inner-Iter.     Column Row Layer    Maximum-Head-Change  Column Row Layer    Maximum-Flux-Residual          L2-NORM 
          0                 1           2             4    7     1       0.2189619548E-01       4    7    1         0.1150421606E+01      0.2675912545E+01
          0                 2           2             4    7     1      -0.2129912980E-02       4    7    1        -0.1150428501E+00      0.2675858110E+00
          0                 3           2             4    7     1       0.1450390779E-03       4    7    1         0.8052996470E-02      0.1873050318E-01
          0                 4           1             4    7     1      -0.5771241149E-05       4    7    1        -0.3293680425E-03      0.7663289470E-03

    ------------------------------------------------
       NWT REQUIRED            4 OUTER ITERATIONS 
       AND A TOTAL OF          7 INNER ITERATIONS.
    ------------------------------------------------

 NO OUTPUT CONTROL FOR STRESS PERIOD   14   TIME STEP    7
 
 SOLVING FOR HEAD 
                                                   Max.-Head-Change                         Max.-Flux-Residual
  Residual-Control   Outer-Iter.   Inner-Iter.     Column Row Layer    Maximum-Head-Change  Column Row Layer    Maximum-Flux-Residual          L2-NORM 
          0                 1           2             4    7     1       0.2165509720E-01       4    7    1         0.1137692909E+01      0.2651707243E+01
          0                 2           2             4    7     1      -0.2106460450E-02       4    7    1        -0.1137699642E+00      0.2651656165E+00
          0                 3           2             4    7     1       0.1434420497E-03       4    7    1         0.7963894558E-02      0.1856109533E-01
          0                 4           1             4    7     1      -0.5707694053E-05       4    7    1        -0.3257237749E-03      0.7591461676E-03

    ------------------------------------------------
       NWT REQUIRED            4 OUTER ITERATIONS 
       AND A TOTAL OF          7 INNER ITERATIONS.
    ------------------------------------------------

 NO OUTPUT CONTROL FOR STRESS PERIOD   14   TIME STEP    8
 
 SOLVING FOR HEAD 
                                                   Max.-Head-Change                         Max.-Flux-Residual
  Residual-Control   Outer-Iter.   Inner-Iter.     Column Row Layer    Maximum-Head-Change  Column Row Layer    Maximum-Flux-Residual          L2-NORM 
          0                 1           2             4    7     1       0.2141761606E-01       4    7    1         0.1125155695E+01      0.2627840918E+01
          0                 2           2             4    7     1      -0.2083359775E-02       4    7    1        -0.1125162268E+00      0.2627793366E+00
          0                 3           2             4    7     1       0.1418689815E-03       4    7    1         0.7876133042E-02      0.1839409584E-01
          0                 4           1             4    7     1      -0.5645099982E-05       4    7    1        -0.3221343200E-03      0.7522996573E-03

    ------------------------------------------------
       NWT REQUIRED            4 OUTER ITERATIONS 
       AND A TOTAL OF          7 INNER ITERATIONS.
    ------------------------------------------------

 NO OUTPUT CONTROL FOR STRESS PERIOD   14   TIME STEP    9
 
 SOLVING FOR HEAD 
                                                   Max.-Head-Change                         Max.-Flux-Residual
  Residual-Control   Outer-Iter.   Inner-Iter.     Column Row Layer    Maximum-Head-Change  Column Row Layer    Maximum-Flux-Residual          L2-NORM 
          0                 1           2             4    7     1       0.2118394731E-01       4    7    1         0.1112820647E+01      0.2604310890E+01
          0                 2           2             4    7     1      -0.2060629949E-02       4    7    1        -0.1112827066E+00      0.2604266244E+00
          0                 3           2             4    7     1       0.1403211672E-03       4    7    1         0.7789786757E-02      0.1822940531E-01
          0                 4           1             4    7     1      -0.5583511206E-05       4    7    1        -0.3186027589E-03      0.7455696824E-03

    ------------------------------------------------
       NWT REQUIRED            4 OUTER ITERATIONS 
       AND A TOTAL OF          7 INNER ITERATIONS.
    ------------------------------------------------

 NO OUTPUT CONTROL FOR STRESS PERIOD   14   TIME STEP   10
 
 SOLVING FOR HEAD 
                                                   Max.-Head-Change                         Max.-Flux-Residual
  Residual-Control   Outer-Iter.   Inner-Iter.     Column Row Layer    Maximum-Head-Change  Column Row Layer    Maximum-Flux-Residual          L2-NORM 
          0                 1           2             4    7     1       0.2095400807E-01       4    7    1         0.1100683266E+01      0.2581110828E+01
          0                 2           2             4    7     1      -0.2038262909E-02       4    7    1        -0.1100689535E+00      0.2581068582E+00
          0                 3           2             4    7     1       0.1387980568E-03       4    7    1         0.7704824144E-02      0.1806708753E-01
          0                 4           1             4    7     1      -0.5522905044E-05       4    7    1        -0.3151277747E-03      0.7389473509E-03

    ------------------------------------------------
       NWT REQUIRED            4 OUTER ITERATIONS 
       AND A TOTAL OF          7 INNER ITERATIONS.
    ------------------------------------------------

 NO OUTPUT CONTROL FOR STRESS PERIOD   14   TIME STEP   11
 
 SOLVING FOR HEAD 
                                                   Max.-Head-Change                         Max.-Flux-Residual
  Residual-Control   Outer-Iter.   Inner-Iter.     Column Row Layer    Maximum-Head-Change  Column Row Layer    Maximum-Flux-Residual          L2-NORM 
          0                 1           2             4    7     1       0.2072757960E-01       4    7    1         0.1088731940E+01      0.2558233520E+01
          0                 2           2             4    7     1      -0.2016237376E-02       4    7    1        -0.1088738063E+00      0.2558193992E+00
          0                 3           2             4    7     1       0.1372982017E-03       4    7    1         0.7621163935E-02      0.1790695852E-01
          0                 4           1             4    7     1      -0.5463224277E-05       4    7    1        -0.3117060674E-03      0.7323713066E-03

    ------------------------------------------------
       NWT REQUIRED            4 OUTER ITERATIONS 
       AND A TOTAL OF          7 INNER ITERATIONS.
    ------------------------------------------------

 NO OUTPUT CONTROL FOR STRESS PERIOD   14   TIME STEP   12
 
 SOLVING FOR HEAD 
                                                   Max.-Head-Change                         Max.-Flux-Residual
  Residual-Control   Outer-Iter.   Inner-Iter.     Column Row Layer    Maximum-Head-Change  Column Row Layer    Maximum-Flux-Residual          L2-NORM 
          0                 1           2             4    7     1       0.2050459070E-01       4    7    1         0.1076962641E+01      0.2535672406E+01
          0                 2           2             4    7     1      -0.1994546427E-02       4    7    1        -0.1076968622E+00      0.2535634971E+00
          0                 3           2             4    7     1       0.1358211308E-03       4    7    1         0.7538777962E-02      0.1774908789E-01
          0                 4           1             4    7     1      -0.5404450601E-05       4    7    1        -0.3083364768E-03      0.7259196953E-03

    ------------------------------------------------
       NWT REQUIRED            4 OUTER ITERATIONS 
       AND A TOTAL OF          7 INNER ITERATIONS.
    ------------------------------------------------

 NO OUTPUT CONTROL FOR STRESS PERIOD   14   TIME STEP   13
 
 SOLVING FOR HEAD 
                                                   Max.-Head-Change                         Max.-Flux-Residual
  Residual-Control   Outer-Iter.   Inner-Iter.     Column Row Layer    Maximum-Head-Change  Column Row Layer    Maximum-Flux-Residual          L2-NORM 
          0                 1           2             4    7     1       0.2028523740E-01       4    7    1         0.1065386306E+01      0.2513424871E+01
          0                 2           2             4    7     1      -0.1973209127E-02       4    7    1        -0.1065392148E+00      0.2513389497E+00
          0                 3           2             4    7     1       0.1343681416E-03       4    7    1         0.7457742729E-02      0.1759336091E-01
          0                 4           1             4    7     1      -0.5346634326E-05       4    7    1        -0.3050221271E-03      0.7195521812E-03

    ------------------------------------------------
       NWT REQUIRED            4 OUTER ITERATIONS 
       AND A TOTAL OF          7 INNER ITERATIONS.
    ------------------------------------------------

 NO OUTPUT CONTROL FOR STRESS PERIOD   14   TIME STEP   14
 
 SOLVING FOR HEAD 
                                                   Max.-Head-Change                         Max.-Flux-Residual
  Residual-Control   Outer-Iter.   Inner-Iter.     Column Row Layer    Maximum-Head-Change  Column Row Layer    Maximum-Flux-Residual          L2-NORM 
          0                 1           2             4    7     1       0.2006916856E-01       4    7    1         0.1053983842E+01      0.2491479937E+01
          0                 2           2             4    7     1      -0.1952191321E-02       4    7    1        -0.1053989550E+00      0.2491446223E+00
          0                 3           2             4    7     1       0.1329369087E-03       4    7    1         0.7377924634E-02      0.1743979028E-01
          0                 4           1             4    7     1      -0.5289684502E-05       4    7    1        -0.3017575577E-03      0.7132759329E-03

    ------------------------------------------------
       NWT REQUIRED            4 OUTER ITERATIONS 
       AND A TOTAL OF          7 INNER ITERATIONS.
    ------------------------------------------------

 NO OUTPUT CONTROL FOR STRESS PERIOD   14   TIME STEP   15
 
 SOLVING FOR HEAD 
                                                   Max.-Head-Change                         Max.-Flux-Residual
  Residual-Control   Outer-Iter.   Inner-Iter.     Column Row Layer    Maximum-Head-Change  Column Row Layer    Maximum-Flux-Residual          L2-NORM 
          0                 1           2             4    7     1       0.1985645090E-01       4    7    1         0.1042758986E+01      0.2469831549E+01
          0                 2           2             4    7     1      -0.1931499499E-02       4    7    1        -0.1042764563E+00      0.2469799532E+00
          0                 3           2             4    7     1       0.1315278744E-03       4    7    1         0.7299349816E-02      0.1728830530E-01
          0                 4           1             4    7     1      -0.5233617360E-05       4    7    1        -0.2985438496E-03      0.7070860546E-03

    ------------------------------------------------
       NWT REQUIRED            4 OUTER ITERATIONS 
       AND A TOTAL OF          7 INNER ITERATIONS.
    ------------------------------------------------

 NO OUTPUT CONTROL FOR STRESS PERIOD   14   TIME STEP   16
 
 SOLVING FOR HEAD 
                                                   Max.-Head-Change                         Max.-Flux-Residual
  Residual-Control   Outer-Iter.   Inner-Iter.     Column Row Layer    Maximum-Head-Change  Column Row Layer    Maximum-Flux-Residual          L2-NORM 
          0                 1           2             4    7     1       0.1964701266E-01       4    7    1         0.1031707884E+01      0.2448482941E+01
          0                 2           2             4    7     1      -0.1911126679E-02       4    7    1        -0.1031713332E+00      0.2448452315E+00
          0                 3           2             4    7     1       0.1301405628E-03       4    7    1         0.7221991290E-02      0.1713888262E-01
          0                 4           1             4    7     1      -0.5178415173E-05       4    7    1        -0.2953798821E-03      0.7009688451E-03

    ------------------------------------------------
       NWT REQUIRED            4 OUTER ITERATIONS 
       AND A TOTAL OF          7 INNER ITERATIONS.
    ------------------------------------------------

 NO OUTPUT CONTROL FOR STRESS PERIOD   14   TIME STEP   17
 
 SOLVING FOR HEAD 
                                                   Max.-Head-Change                         Max.-Flux-Residual
  Residual-Control   Outer-Iter.   Inner-Iter.     Column Row Layer    Maximum-Head-Change  Column Row Layer    Maximum-Flux-Residual          L2-NORM 
          0                 1           2             4    7     1       0.1944064698E-01       4    7    1         0.1020819498E+01      0.2427411765E+01
          0                 2           2             4    7     1      -0.1891052742E-02       4    7    1        -0.1020824822E+00      0.2427382429E+00
          0                 3           2             4    7     1       0.1287736037E-03       4    7    1         0.7145771808E-02      0.1699139671E-01
          0                 4           1             4    7     1      -0.5124022562E-05       4    7    1        -0.2922624899E-03      0.6949415910E-03

    ------------------------------------------------
       NWT REQUIRED            4 OUTER ITERATIONS 
       AND A TOTAL OF          7 INNER ITERATIONS.
    ------------------------------------------------

 NO OUTPUT CONTROL FOR STRESS PERIOD   14   TIME STEP   18
 
 SOLVING FOR HEAD 
                                                   Max.-Head-Change                         Max.-Flux-Residual
  Residual-Control   Outer-Iter.   Inner-Iter.     Column Row Layer    Maximum-Head-Change  Column Row Layer    Maximum-Flux-Residual          L2-NORM 
          0                 1           2             4    7     1       0.1923756050E-01       4    7    1         0.1010105050E+01      0.2406627634E+01
          0                 2           2             4    7     1      -0.1871297786E-02       4    7    1        -0.1010110254E+00      0.2406599124E+00
          0                 3           2             4    7     1       0.1274283665E-03       4    7    1         0.7070769906E-02      0.1684587762E-01
          0                 4           1             4    7     1      -0.5070494215E-05       4    7    1        -0.2891949207E-03      0.6889673895E-03

    ------------------------------------------------
       NWT REQUIRED            4 OUTER ITERATIONS 
       AND A TOTAL OF          7 INNER ITERATIONS.
    ------------------------------------------------

 NO OUTPUT CONTROL FOR STRESS PERIOD   14   TIME STEP   19
 
 SOLVING FOR HEAD 
                                                   Max.-Head-Change                         Max.-Flux-Residual
  Residual-Control   Outer-Iter.   Inner-Iter.     Column Row Layer    Maximum-Head-Change  Column Row Layer    Maximum-Flux-Residual          L2-NORM 
          0                 1           2             4    7     1       0.1903741306E-01       4    7    1         0.9995459927E+00      0.2386121176E+01
          0                 2           2             4    7     1      -0.1851828722E-02       4    7    1        -0.9995510778E-01      0.2386094125E+00
          0                 3           2             4    7     1       0.1261025970E-03       4    7    1         0.6996855747E-02      0.1670239266E-01
          0                 4           1             4    7     1      -0.5017740906E-05       4    7    1        -0.2861718344E-03      0.6831106642E-03

    ------------------------------------------------
       NWT REQUIRED            4 OUTER ITERATIONS 
       AND A TOTAL OF          7 INNER ITERATIONS.
    ------------------------------------------------

 NO OUTPUT CONTROL FOR STRESS PERIOD   14   TIME STEP   20
 
 SOLVING FOR HEAD 
                                                   Max.-Head-Change                         Max.-Flux-Residual
  Residual-Control   Outer-Iter.   Inner-Iter.     Column Row Layer    Maximum-Head-Change  Column Row Layer    Maximum-Flux-Residual          L2-NORM 
          0                 1           2             4    7     1       0.1884041470E-01       4    7    1         0.9891539508E+00      0.2365890563E+01
          0                 2           2             4    7     1      -0.1832666373E-02       4    7    1        -0.9891589213E-01      0.2366130269E+00
          0                 3           2             4    7     1       0.1247977135E-03       4    7    1         0.6924110730E-02      0.1656265569E-01
          0                 4           1             4    7     1      -0.4965818013E-05       4    7    1        -0.2831965403E-03      0.6774020975E-03

    ------------------------------------------------
       NWT REQUIRED            4 OUTER ITERATIONS 
       AND A TOTAL OF          7 INNER ITERATIONS.
    ------------------------------------------------

 NO OUTPUT CONTROL FOR STRESS PERIOD   14   TIME STEP   21
 
 SOLVING FOR HEAD 
                                                   Max.-Head-Change                         Max.-Flux-Residual
  Residual-Control   Outer-Iter.   Inner-Iter.     Column Row Layer    Maximum-Head-Change  Column Row Layer    Maximum-Flux-Residual          L2-NORM 
          0                 1           2             4    7     1       0.1864635947E-01       4    7    1         0.9789178469E+00      0.2345904098E+01
          0                 2           2             4    7     1      -0.1813789535E-02       4    7    1        -0.9789227057E-01      0.2345878739E+00
          0                 3           1             4    7     1       0.1235122753E-03       4    7    1         0.6852457285E-02      0.1642089361E-01
          0                 4           1             4    7     1      -0.4914672231E-05       4    7    1        -0.2802659146E-03      0.6716066388E-03

    ------------------------------------------------
       NWT REQUIRED            4 OUTER ITERATIONS 
       AND A TOTAL OF          6 INNER ITERATIONS.
    ------------------------------------------------

 NO OUTPUT CONTROL FOR STRESS PERIOD   14   TIME STEP   22
 
 SOLVING FOR HEAD 
                                                   Max.-Head-Change                         Max.-Flux-Residual
  Residual-Control   Outer-Iter.   Inner-Iter.     Column Row Layer    Maximum-Head-Change  Column Row Layer    Maximum-Flux-Residual          L2-NORM 
          0                 1           2             4    7     1       0.1845504969E-01       4    7    1         0.9688270639E+00      0.2326152501E+01
          0                 2           2             4    7     1      -0.1795180149E-02       4    7    1        -0.9688318137E-01      0.2326127816E+00
          0                 3           1             4    7     1       0.1222450468E-03       4    7    1         0.6781821139E-02      0.1628261719E-01
          0                 4           1             4    7     1      -0.4864248069E-05       4    7    1        -0.2773768847E-03      0.6659266581E-03

    ------------------------------------------------
       NWT REQUIRED            4 OUTER ITERATIONS 
       AND A TOTAL OF          6 INNER ITERATIONS.
    ------------------------------------------------

 NO OUTPUT CONTROL FOR STRESS PERIOD   14   TIME STEP   23
 
 SOLVING FOR HEAD 
                                                   Max.-Head-Change                         Max.-Flux-Residual
  Residual-Control   Outer-Iter.   Inner-Iter.     Column Row Layer    Maximum-Head-Change  Column Row Layer    Maximum-Flux-Residual          L2-NORM 
          0                 1           2             4    7     1       0.1826670053E-01       4    7    1         0.9588932409E+00      0.2306669240E+01
          0                 2           2             4    7     1      -0.1776858755E-02       4    7    1        -0.9588978848E-01      0.2306645227E+00
          0                 3           1             4    7     1       0.1209974293E-03       4    7    1         0.6712283700E-02      0.1614628197E-01
          0                 4           1             4    7     1      -0.4814604127E-05       4    7    1        -0.2745328065E-03      0.6603686914E-03

    ------------------------------------------------
       NWT REQUIRED            4 OUTER ITERATIONS 
       AND A TOTAL OF          6 INNER ITERATIONS.
    ------------------------------------------------

 NO OUTPUT CONTROL FOR STRESS PERIOD   14   TIME STEP   24
 
 SOLVING FOR HEAD 
                                                   Max.-Head-Change                         Max.-Flux-Residual
  Residual-Control   Outer-Iter.   Inner-Iter.     Column Row Layer    Maximum-Head-Change  Column Row Layer    Maximum-Flux-Residual          L2-NORM 
          0                 1           2             4    7     1       0.1808111490E-01       4    7    1         0.9491056044E+00      0.2287442350E+01
          0                 2           2             4    7     1      -0.1758806181E-02       4    7    1        -0.9491101448E-01      0.2287419139E+00
          0                 3           1             4    7     1       0.1197681175E-03       4    7    1         0.6643769594E-02      0.1601169492E-01
          0                 4           1             4    7     1      -0.4765688482E-05       4    7    1        -0.2717305711E-03      0.6548748520E-03

    ------------------------------------------------
       NWT REQUIRED            4 OUTER ITERATIONS 
       AND A TOTAL OF          6 INNER ITERATIONS.
    ------------------------------------------------

 NO OUTPUT CONTROL FOR STRESS PERIOD   14   TIME STEP   25
 
 SOLVING FOR HEAD 
                                                   Max.-Head-Change                         Max.-Flux-Residual
  Residual-Control   Outer-Iter.   Inner-Iter.     Column Row Layer    Maximum-Head-Change  Column Row Layer    Maximum-Flux-Residual          L2-NORM 
          0                 1           2             4    7     1       0.1789836598E-01       4    7    1         0.9394685697E+00      0.2268464379E+01
          0                 2           2             4    7     1      -0.1741029545E-02       4    7    1        -0.9394730097E-01      0.2268441577E+00
          0                 3           1             4    7     1       0.1185575958E-03       4    7    1         0.6576309707E-02      0.1587885324E-01
          0                 4           1             4    7     1      -0.4717520590E-05       4    7    1        -0.2689714593E-03      0.6494389918E-03

    ------------------------------------------------
       NWT REQUIRED            4 OUTER ITERATIONS 
       AND A TOTAL OF          6 INNER ITERATIONS.
    ------------------------------------------------

 NO OUTPUT CONTROL FOR STRESS PERIOD   14   TIME STEP   26
 
 SOLVING FOR HEAD 
                                                   Max.-Head-Change                         Max.-Flux-Residual
  Residual-Control   Outer-Iter.   Inner-Iter.     Column Row Layer    Maximum-Head-Change  Column Row Layer    Maximum-Flux-Residual          L2-NORM 
          0                 1           2             4    7     1       0.1771812388E-01       4    7    1         0.9299639788E+00      0.2249726856E+01
          0                 2           2             4    7     1      -0.1723496758E-02       4    7    1        -0.9299683207E-01      0.2249704509E+00
          0                 3           1             4    7     1       0.1173636794E-03       4    7    1         0.6509776942E-02      0.1574769799E-01
          0                 4           1             4    7     1      -0.4670013647E-05       4    7    1        -0.2662502657E-03      0.6440681481E-03

    ------------------------------------------------
       NWT REQUIRED            4 OUTER ITERATIONS 
       AND A TOTAL OF          6 INNER ITERATIONS.
    ------------------------------------------------

 NO OUTPUT CONTROL FOR STRESS PERIOD   14   TIME STEP   27
 
 SOLVING FOR HEAD 
                                                   Max.-Head-Change                         Max.-Flux-Residual
  Residual-Control   Outer-Iter.   Inner-Iter.     Column Row Layer    Maximum-Head-Change  Column Row Layer    Maximum-Flux-Residual          L2-NORM 
          0                 1           2             4    7     1       0.1754061245E-01       4    7    1         0.9206039977E+00      0.2231237633E+01
          0                 2           2             4    7     1      -0.1706229595E-02       4    7    1        -0.9206082441E-01      0.2231215996E+00
          0                 3           1             4    7     1       0.1161878512E-03       4    7    1         0.6444256480E-02      0.1561829494E-01
          0                 4           1             4    7     1      -0.4623226020E-05       4    7    1        -0.2635704755E-03      0.6387826012E-03

    ------------------------------------------------
       NWT REQUIRED            4 OUTER ITERATIONS 
       AND A TOTAL OF          6 INNER ITERATIONS.
    ------------------------------------------------

 NO OUTPUT CONTROL FOR STRESS PERIOD   14   TIME STEP   28
 
 SOLVING FOR HEAD 
                                                   Max.-Head-Change                         Max.-Flux-Residual
  Residual-Control   Outer-Iter.   Inner-Iter.     Column Row Layer    Maximum-Head-Change  Column Row Layer    Maximum-Flux-Residual          L2-NORM 
          0                 1           2             4    7     1       0.1736563668E-01       4    7    1         0.9113782793E+00      0.2212983794E+01
          0                 2           2             4    7     1      -0.1689209085E-02       4    7    1        -0.9113824325E-01      0.2212980808E+00
          0                 3           1             4    7     1       0.1150288190E-03       4    7    1         0.6379675863E-02      0.1549066934E-01
          0                 4           1             4    7     1      -0.4577107400E-05       4    7    1        -0.2609291291E-03      0.6335991455E-03

    ------------------------------------------------
       NWT REQUIRED            4 OUTER ITERATIONS 
       AND A TOTAL OF          6 INNER ITERATIONS.
    ------------------------------------------------

 NO OUTPUT CONTROL FOR STRESS PERIOD   14   TIME STEP   29
 
 SOLVING FOR HEAD 
                                                   Max.-Head-Change                         Max.-Flux-Residual
  Residual-Control   Outer-Iter.   Inner-Iter.     Column Row Layer    Maximum-Head-Change  Column Row Layer    Maximum-Flux-Residual          L2-NORM 
          0                 1           2             4    7     1       0.1719327716E-01       4    7    1         0.9022913492E+00      0.2194962309E+01
          0                 2           2             4    7     1      -0.1672443070E-02       4    7    1        -0.9022954116E-01      0.2194941619E+00
          0                 3           1             4    7     1       0.1138871171E-03       4    7    1         0.6316066776E-02      0.1536438508E-01
          0                 4           1             4    7     1      -0.4531678279E-05       4    7    1        -0.2583275309E-03      0.6283945415E-03

    ------------------------------------------------
       NWT REQUIRED            4 OUTER ITERATIONS 
       AND A TOTAL OF          6 INNER ITERATIONS.
    ------------------------------------------------

 NO OUTPUT CONTROL FOR STRESS PERIOD   14   TIME STEP   30



 STREAM LISTING     PERIOD     14   STEP       30

 LAYER ROW COL. STREAM  RCH.  FLOW INTO     FLOW TO   FLOW OUT OF   OVRLND.     DIRECT     STREAM       STREAM     STREAM     STREAM   STREAMBED  STREAMBED
                SEG.NO.  NO.  STRM. RCH.    AQUIFER    STRM. RCH.    RUNOFF     PRECIP       ET          HEAD       DEPTH      WIDTH   CONDCTNC.   GRADIENT

   1    1    1     1     1    7.1251E+00  1.2038E-01   7.0047E+00  0.000E+00  0.000E+00  0.000E+00  1.09385E+03  8.024E-01  7.035E+00  3.166E-02  1.267E+00
   1    2    2     1     2    7.0047E+00  1.8492E-01   6.8198E+00  0.000E+00  0.000E+00  0.000E+00  1.08886E+03  7.976E-01  6.956E+00  4.869E-02  1.266E+00
   1    3    3     1     3    6.8198E+00  1.5635E-01   6.6635E+00  0.000E+00  0.000E+00  0.000E+00  1.08321E+03  7.929E-01  6.870E+00  4.122E-02  1.264E+00
   1    3    4     1     4    6.6635E+00  1.4286E-01   6.5206E+00  0.000E+00  0.000E+00  0.000E+00  1.07820E+03  7.886E-01  6.794E+00  3.771E-02  1.263E+00
   1    4    5     2     1    4.5206E+00  2.6715E-01   4.2534E+00  0.000E+00  0.000E+00  0.000E+00  1.07236E+03  4.251E-01  1.200E+01  7.800E-02  1.142E+00
   1    5    6     2     2    4.2534E+00  2.0467E-01   4.0488E+00  0.000E+00  0.000E+00  0.000E+00  1.06692E+03  4.112E-01  1.200E+01  6.000E-02  1.137E+00
   1    6    6     2     3    4.0488E+00  2.0394E-01   3.8448E+00  0.000E+00  0.000E+00  0.000E+00  1.06219E+03  3.989E-01  1.200E+01  6.000E-02  1.133E+00
   1    7    6     2     4    3.8448E+00  2.0319E-01   3.6417E+00  0.000E+00  0.000E+00  0.000E+00  1.05746E+03  3.865E-01  1.200E+01  6.000E-02  1.129E+00
   1    8    6     2     5    3.6417E+00  2.0242E-01   3.4392E+00  0.000E+00  0.000E+00  0.000E+00  1.05273E+03  3.737E-01  1.200E+01  6.000E-02  1.125E+00
   1    3    5     3     1    2.0000E+00  2.8252E-01   1.7175E+00  0.000E+00  0.000E+00  0.000E+00  1.07555E+03  1.909E+00  9.636E+00  7.227E-02  1.955E+00
   1    3    6     3     2    1.7175E+00  2.4905E-01   1.4684E+00  0.000E+00  0.000E+00  0.000E+00  1.07264E+03  1.727E+00  8.909E+00  6.682E-02  1.864E+00
   1    3    7     3     3    1.4684E+00  1.9718E-01   1.2712E+00  0.000E+00  0.000E+00  0.000E+00  1.06987E+03  1.555E+00  8.218E+00  5.547E-02  1.777E+00
   1    4    8     3     4    1.2712E+00  2.2567E-01   1.0456E+00  0.000E+00  0.000E+00  0.000E+00  1.06682E+03  1.364E+00  7.455E+00  6.709E-02  1.682E+00
   1    5    8     3     5    1.0456E+00  1.5790E-01   8.8768E-01  0.000E+00  0.000E+00  0.000E+00  1.06362E+03  1.164E+00  6.655E+00  4.991E-02  1.582E+00
   1    6    8     3     6    8.8768E-01  5.5980E-02   8.3170E-01  0.000E+00  0.000E+00  0.000E+00  1.06158E+03  1.036E+00  6.145E+00  1.844E-02  1.518E+00
   1    5   10     4     1    1.0000E+01  9.0919E-02   9.9091E+00  0.000E+00  0.000E+00  0.000E+00  1.07836E+03  6.368E-01  1.000E+01  2.500E-02  1.212E+00
   1    5    9     4     2    9.9091E+00  1.8158E-01   9.7275E+00  0.000E+00  0.000E+00  0.000E+00  1.07154E+03  6.315E-01  1.000E+01  5.000E-02  1.211E+00
   1    6    8     4     3    9.7275E+00  1.2689E-01   9.6006E+00  0.000E+00  0.000E+00  0.000E+00  1.06381E+03  6.256E-01  1.000E+01  3.500E-02  1.209E+00
   1    6    8     5     1    1.0432E+01  2.2686E-01   1.0205E+01  0.000E+00  0.000E+00  0.000E+00  1.05868E+03  6.790E-01  1.542E+01  6.166E-02  1.226E+00
   1    7    7     5     2    1.0205E+01  2.7894E-01   9.9265E+00  0.000E+00  0.000E+00  0.000E+00  1.05417E+03  6.732E-01  1.519E+01  7.594E-02  1.224E+00
   1    8    7     5     3    9.9265E+00  1.9221E-01   9.7343E+00  0.000E+00  0.000E+00  0.000E+00  1.04992E+03  6.676E-01  1.497E+01  5.241E-02  1.223E+00
   1    8    6     5     4    9.7343E+00  1.3577E-01   9.5985E+00  0.000E+00  0.000E+00  0.000E+00  1.04691E+03  6.637E-01  1.482E+01  3.706E-02  1.221E+00
   1    9    6     6     1    1.3038E+01  2.2931E-01   1.2808E+01  0.000E+00  0.000E+00  0.000E+00  1.04355E+03  8.218E-01  1.200E+01  6.000E-02  1.274E+00
   1   10    7     6     2    1.2808E+01  2.2878E-01   1.2580E+01  0.000E+00  0.000E+00  0.000E+00  1.03899E+03  8.131E-01  1.200E+01  6.000E-02  1.271E+00
   1   11    7     6     3    1.2580E+01  2.2826E-01   1.2351E+01  0.000E+00  0.000E+00  0.000E+00  1.03444E+03  8.043E-01  1.200E+01  6.000E-02  1.268E+00
   1   12    7     6     4    1.2351E+01  2.2772E-01   1.2124E+01  0.000E+00  0.000E+00  0.000E+00  1.02989E+03  7.954E-01  1.200E+01  6.000E-02  1.265E+00
   1   13    7     6     5    1.2124E+01 -1.8899E-02   1.2143E+01  0.000E+00  0.000E+00  0.000E+00  1.02670E+03  7.913E-01  1.200E+01  2.400E-01 -2.625E-02
   1   14    9     7     1    1.5000E+02  1.3700E+00   1.4863E+02  0.000E+00  0.000E+00  0.000E+00  1.03987E+03  2.288E+00  5.529E+01  5.593E-01  8.165E-01
   1   13    8     7     2    1.4863E+02  1.9276E+00   1.4670E+02  0.000E+00  0.000E+00  0.000E+00  1.03478E+03  2.279E+00  5.525E+01  6.148E-01  1.045E+00
   1   13    7     7     3    1.4670E+02  1.6247E+00   1.4508E+02  0.000E+00  0.000E+00  0.000E+00  1.02969E+03  2.269E+00  5.521E+01  5.584E-01  9.699E-01
   1   13    6     8     1    1.5722E+02  1.0083E+00   1.5621E+02  0.000E+00  0.000E+00  0.000E+00  1.02474E+03  2.863E+00  4.152E+01  4.231E-01  7.944E-01
   1   13    5     8     2    1.5621E+02  2.7431E-01   1.5594E+02  0.000E+00  0.000E+00  0.000E+00  1.01848E+03  2.859E+00  4.146E+01  4.225E-01  2.164E-01
   1   13    4     8     3    1.5594E+02 -2.0667E+00   1.5800E+02  0.000E+00  0.000E+00  0.000E+00  1.01224E+03  2.865E+00  4.155E+01  4.234E+00 -1.627E-01
   1   13    3     8     4    1.5800E+02 -3.4765E+00   1.6148E+02  0.000E+00  0.000E+00  0.000E+00  1.00601E+03  2.884E+00  4.182E+01  4.262E+00 -2.719E-01
   1   13    2     8     5    1.6148E+02 -2.5442E+00   1.6403E+02  0.000E+00  0.000E+00  0.000E+00  9.99779E+02  2.904E+00  4.211E+01  4.291E+00 -1.976E-01
   1   13    1     8     6    1.6403E+02 -1.9744E+00   1.6600E+02  0.000E+00  0.000E+00  0.000E+00  9.94794E+02  2.919E+00  4.233E+01  2.588E+00 -2.543E-01
   1    8    6     9     1    0.0000E+00  0.0000E+00   0.0000E+00  0.000E+00  0.000E+00  0.000E+00  1.07875E+03  0.000E+00  4.000E+00  0.000E+00  1.000E+00
   1    8    5     9     2    0.0000E+00  0.0000E+00   0.0000E+00  0.000E+00  0.000E+00  0.000E+00  1.07825E+03  0.000E+00  4.000E+00  0.000E+00  1.000E+00





UNSATURATED ZONE PACKAGE VOLUMETRIC BUDGET FOR  TIME STEP    30 STRESS PERIOD   14
  ------------------------------------------------------------------------------



     CUMULATIVE VOLUMES      L**3       RATES FOR THIS TIME STEP      L**3/T
     ------------------                 ------------------------

           IN:                                      IN:
           ---                                      ---
        INFILTRATION =   673665289.6681          INFILTRATION =           0.8475

          OUT:                                     OUT:
          ----                                     ----
              UZF ET =   434172883.6972                UZF ET =           0.7500
        UZF RECHARGE =       73224.0000          UZF RECHARGE =       0.0000E+00

            IN - OUT =   239419181.9709              IN - OUT =       9.7500E-02

          STORAGE:                                 STORAGE:
          --------                                 --------
      STORAGE CHANGE =   239419530.5123        STORAGE CHANGE =       9.7500E-02

 PERCENT DISCREPANCY IS DIFFERENCE BETWEEN IN-OUT MINUS CHANGE IN STORAGE
 DIVIDED BY THE AVERAGE OF IN AND OUT TIMES 100

 PERCENT DISCREPANCY =          -0.00     PERCENT DISCREPANCY =           0.00






1
  VOLUMETRIC BUDGET FOR AGRICULTURAL FIELDS AT  END OF TIME STEP   30, STRESS PERIOD  14
  ------------------------------------------------------------------------------

     CUMULATIVE VOLUMES      L**3       RATES FOR THIS TIME STEP      L**3/T
     ------------------                 ------------------------

           IN:                                      IN:
           ---                                      ---
               AG WELLS  =   429841792.0000                 AG WELLS  =           0.0000
      DIVERSION SEGMENTS =   214830320.0000        DIVERSION SEGMENTS =           0.0000
       IRRIGATION PONDS  =           0.0000         IRRIGATION PONDS  =           0.0000
           GW IRRIGATION =           0.0000             GW IRRIGATION =           0.0000
           SW IRRIGATION =           0.0000             SW IRRIGATION =           0.0000
        SYSTEM LOSSES GW =           0.0000          SYSTEM LOSSES GW =           0.0000
        SYSTEM LOSSES SW =           0.0000          SYSTEM LOSSES SW =           0.0000

                TOTAL IN =   644672128.0000                  TOTAL IN =           0.0000

          OUT:                                     OUT:
          ----                                     ----
               AG WELLS  =           0.0000                 AG WELLS  =           0.0000
      DIVERSION SEGMENTS =           0.0000        DIVERSION SEGMENTS =           0.0000
       IRRIGATION PONDS  =           0.0000         IRRIGATION PONDS  =           0.0000
           GW IRRIGATION =   429841792.0000             GW IRRIGATION =           0.0000
           SW IRRIGATION =   214834512.0000             SW IRRIGATION =           0.0000
        SYSTEM LOSSES GW =           0.0000          SYSTEM LOSSES GW =           0.0000
        SYSTEM LOSSES SW =           0.0000          SYSTEM LOSSES SW =           0.0000

               TOTAL OUT =   644676288.0000                 TOTAL OUT =           0.0000

                IN - OUT =       -4160.0000                  IN - OUT =           0.0000

     PERCENT DISCREPANCY =          -0.00         PERCENT DISCREPANCY =           0.00



1
  VOLUMETRIC BUDGET FOR ENTIRE MODEL AT END OF TIME STEP   30, STRESS PERIOD  14
  ------------------------------------------------------------------------------

     CUMULATIVE VOLUMES      L**3       RATES FOR THIS TIME STEP      L**3/T
     ------------------                 ------------------------

           IN:                                      IN:
           ---                                      ---
             STORAGE     =   678980352.0000               STORAGE     =           6.2573
       CONSTANT HEAD     =           0.0000         CONSTANT HEAD     =           0.0000
     HEAD DEP BOUNDS     =     9869782.0000       HEAD DEP BOUNDS     =           0.2881
      STREAM LEAKAGE     =   400283392.0000        STREAM LEAKAGE     =          11.2063
        UZF RECHARGE     =       73223.9531          UZF RECHARGE     =           0.0000
               GW ET     =           0.0000                 GW ET     =           0.0000
     SURFACE LEAKAGE     =           0.0000       SURFACE LEAKAGE     =           0.0000
           AG WELLS      =           0.0000             AG WELLS      =           0.0000

                TOTAL IN =  1089206784.0000                  TOTAL IN =          17.7517

          OUT:                                     OUT:
          ----                                     ----
             STORAGE     =   296391456.0000               STORAGE     =           7.3839
       CONSTANT HEAD     =           0.0000         CONSTANT HEAD     =           0.0000
     HEAD DEP BOUNDS     =     9869245.0000       HEAD DEP BOUNDS     =           0.2872
      STREAM LEAKAGE     =   353106752.0000        STREAM LEAKAGE     =          10.0807
        UZF RECHARGE     =           0.0000          UZF RECHARGE     =           0.0000
               GW ET     =           0.0000                 GW ET     =           0.0000
     SURFACE LEAKAGE     =           0.0000       SURFACE LEAKAGE     =           0.0000
           AG WELLS      =   429841792.0000             AG WELLS      =           0.0000

               TOTAL OUT =  1089209216.0000                 TOTAL OUT =          17.7517

                IN - OUT =       -2432.0000                  IN - OUT =       9.5367E-06

     PERCENT DISCREPANCY =          -0.00         PERCENT DISCREPANCY =           0.00






         TIME SUMMARY AT END OF TIME STEP   30 IN STRESS PERIOD   14
                    SECONDS     MINUTES      HOURS       DAYS        YEARS
                    -----------------------------------------------------------
   TIME STEP LENGTH  87667.      1461.1      24.352      1.0147     2.77799E-03
 STRESS PERIOD TIME 2.63000E+06  43833.      730.56      30.440     8.33397E-02
         TOTAL TIME 3.42763E+07 5.71272E+05  9521.2      396.72      1.0862    
1
1
                            STRESS PERIOD NO.   15, LENGTH =   2630000.    
                            -----------------------------------------------

                              NUMBER OF TIME STEPS =    30

                               MULTIPLIER FOR DELT =     1.000

                            INITIAL TIME STEP SIZE =   87666.66    

 REUSING NON-PARAMETER GHB CELLS FROM LAST STRESS PERIOD

      2 GHB CELLS

 REUSING STREAM SEGMENT DATA FROM LAST STRESS PERIOD



            AREAL INFILTRATION RATE
 READING ON UNIT   19 WITH FORMAT: (FREE)              

            1           2           3           4           5           6           7           8           9          10
 ........................................................................................................................
   1   1.0000E-10  2.0000E-10   0.000       0.000       0.000       0.000       0.000       0.000       0.000       0.000    
   2   2.0000E-10  1.0000E-10  2.0000E-10   0.000       0.000      8.0000E-10  8.0000E-10  5.0000E-10   0.000       0.000    
   3    0.000      5.0000E-10  1.0000E-10  1.0000E-10  8.0000E-10  8.0000E-10  5.0000E-10  5.0000E-10   0.000       0.000    
   4   8.0000E-10  5.0000E-10  1.0000E-10  1.0000E-10  1.0000E-10  1.0000E-10  1.0000E-10  1.0000E-10  2.0000E-10   0.000    
   5   8.0000E-10  5.0000E-10  1.0000E-10  1.0000E-10  1.0000E-10  1.0000E-10  1.0000E-10  1.0000E-10  1.0000E-10  1.0000E-10
   6   8.0000E-10  5.0000E-10  5.0000E-10  2.0000E-10  2.0000E-10  1.0000E-10  1.0000E-10  1.0000E-10  1.0000E-10  5.0000E-10
   7   8.0000E-10  5.0000E-10  5.0000E-10  2.0000E-10  2.0000E-10  1.0000E-10  1.0000E-10  2.0000E-10  2.0000E-10   0.000    
   8    0.000      5.0000E-10  5.0000E-10  2.0000E-10  2.0000E-10  1.0000E-10  1.0000E-10  2.0000E-10  5.0000E-10   0.000    
   9    0.000      5.0000E-10  5.0000E-10  2.0000E-10  2.0000E-10  1.0000E-10  1.0000E-10  2.0000E-10  5.0000E-10   0.000    
  10    0.000      5.0000E-10  5.0000E-10  2.0000E-10  2.0000E-10  1.0000E-10  1.0000E-10  2.0000E-10  5.0000E-10  8.0000E-10
  11    0.000      1.0000E-10  1.0000E-10  1.0000E-10  1.0000E-10  1.0000E-10  1.0000E-10  2.0000E-10  5.0000E-10   0.000    
  12   1.0000E-10  1.0000E-10  1.0000E-10  1.0000E-10  1.0000E-10  1.0000E-10  1.0000E-10  1.0000E-10  2.0000E-10   0.000    
  13   1.0000E-10  1.0000E-10  2.0000E-10  2.0000E-10  2.0000E-10  2.0000E-10  2.0000E-10  1.0000E-10  1.0000E-10   0.000    
  14    0.000      2.0000E-10  5.0000E-10  5.0000E-10  5.0000E-10  5.0000E-10  5.0000E-10  2.0000E-10  1.0000E-10   0.000    
  15    0.000       0.000      8.0000E-10  8.0000E-10  8.0000E-10  8.0000E-10   0.000       0.000       0.000       0.000    

                  ET RATE =  5.000000E-10

 USING ET EXTINCTION DEPTH FROM PREVIOUS STRESS PERIOD. CURRENT PERIOD IS:      15

 USING EXTINCTION WATER CONTENT FROM PREVIOUS STRESS PERIOD. CURRENT PERIOD IS:      15

 USING AIR ENTRY PRESSURE FROM PREVIOUS STRESS PERIOD. CURRENT PERIOD IS:      15

 USING ROOT PRESSURE HEAD FROM PREVIOUS STRESS PERIOD. CURRENT PERIOD IS:      15

 USING ROOT ACTIVITY FROM PREVIOUS STRESS PERIOD. CURRENT PERIOD IS:      15

 PROCESSING AG STRESS PERIOD DATA

 READING AG STRESS PERIOD DATA

 READING IRRIGATION SEGMENT

 READING IRRIGATION WELL

 READING SUPPLEMENTAL WELL

 NO IRRPOND OR REUSING IRRPOND DATA FROM LAST STRESS PERIOD

 END PROCESSING AG STRESS PERIOD DATA OPTIONS
 
 SOLVING FOR HEAD 
                                                   Max.-Head-Change                         Max.-Flux-Residual
  Residual-Control   Outer-Iter.   Inner-Iter.     Column Row Layer    Maximum-Head-Change  Column Row Layer    Maximum-Flux-Residual          L2-NORM 
          0                 1           2             4    7     1       0.1702334419E-01       4    7    1         0.8933327493E+00      0.2177164920E+01
          0                 2           2             4    7     1      -0.1655913094E-02       4    7    1        -0.8933367236E-01      0.2177144527E+00
          0                 3           1             4    7     1       0.1127614879E-03       4    7    1         0.6253356009E-02      0.1523980017E-01
          0                 4           1             4    7     1      -0.4486888001E-05       4    7    1        -0.2557626322E-03      0.6233032013E-03

    ------------------------------------------------
       NWT REQUIRED            4 OUTER ITERATIONS 
       AND A TOTAL OF          6 INNER ITERATIONS.
    ------------------------------------------------

 NO OUTPUT CONTROL FOR STRESS PERIOD   15   TIME STEP    1
 
 SOLVING FOR HEAD 
                                                   Max.-Head-Change                         Max.-Flux-Residual
  Residual-Control   Outer-Iter.   Inner-Iter.     Column Row Layer    Maximum-Head-Change  Column Row Layer    Maximum-Flux-Residual          L2-NORM 
          0                 1           2             4    7     1       0.1685593150E-01       4    7    1         0.8845072806E+00      0.2158506808E+01
          0                 2           2             4    7     1      -0.1639628277E-02       4    7    1        -0.8845111687E-01      0.2158500544E+00
          0                 3           1             4    7     1       0.1116525533E-03       4    7    1         0.6191577169E-02      0.1510941449E-01
          0                 4           1             4    7     1      -0.4442762470E-05       4    7    1        -0.2532358808E-03      0.6179690127E-03

    ------------------------------------------------
       NWT REQUIRED            4 OUTER ITERATIONS 
       AND A TOTAL OF          6 INNER ITERATIONS.
    ------------------------------------------------

 NO OUTPUT CONTROL FOR STRESS PERIOD   15   TIME STEP    2
 
 SOLVING FOR HEAD 
                                                   Max.-Head-Change                         Max.-Flux-Residual
  Residual-Control   Outer-Iter.   Inner-Iter.     Column Row Layer    Maximum-Head-Change  Column Row Layer    Maximum-Flux-Residual          L2-NORM 
          0                 1           2             4    7     1       0.1669085572E-01       4    7    1         0.8758051658E+00      0.2140461579E+01
          0                 2           2             4    7     1      -0.1623570780E-02       4    7    1        -0.8758089696E-01      0.2140460635E+00
          0                 3           1             4    7     1       0.1105590985E-03       4    7    1         0.6130661836E-02      0.1498319400E-01
          0                 4           1             4    7     1      -0.4399252642E-05       4    7    1        -0.2507444256E-03      0.6128123408E-03

    ------------------------------------------------
       NWT REQUIRED            4 OUTER ITERATIONS 
       AND A TOTAL OF          6 INNER ITERATIONS.
    ------------------------------------------------

 NO OUTPUT CONTROL FOR STRESS PERIOD   15   TIME STEP    3
 
 SOLVING FOR HEAD 
                                                   Max.-Head-Change                         Max.-Flux-Residual
  Residual-Control   Outer-Iter.   Inner-Iter.     Column Row Layer    Maximum-Head-Change  Column Row Layer    Maximum-Flux-Residual          L2-NORM 
          0                 1           2             4    7     1       0.1652806951E-01       4    7    1         0.8672242153E+00      0.2123347974E+01
          0                 2           2             4    7     1      -0.1607764027E-02       4    7    1        -0.8672279371E-01      0.2123712357E+00
          0                 3           1             4    7     1       0.1094827185E-03       4    7    1         0.6070594664E-02      0.1486594737E-01
          0                 4           1             4    7     1      -0.4356422526E-05       4    7    1        -0.2482876844E-03      0.6080180621E-03

    ------------------------------------------------
       NWT REQUIRED            4 OUTER ITERATIONS 
       AND A TOTAL OF          6 INNER ITERATIONS.
    ------------------------------------------------

 NO OUTPUT CONTROL FOR STRESS PERIOD   15   TIME STEP    4
 
 SOLVING FOR HEAD 
                                                   Max.-Head-Change                         Max.-Flux-Residual
  Residual-Control   Outer-Iter.   Inner-Iter.     Column Row Layer    Maximum-Head-Change  Column Row Layer    Maximum-Flux-Residual          L2-NORM 
          0                 1           2             4    7     1       0.1636754961E-01       4    7    1         0.8587678012E+00      0.2106424852E+01
          0                 2           2             4    7     1      -0.1592121681E-02       4    7    1        -0.8587714451E-01      0.2106422724E+00
          0                 3           1             4    7     1       0.1084175337E-03       4    7    1         0.6011399269E-02      0.1474491292E-01
          0                 4           1             4    7     1      -0.4314037955E-05       4    7    1        -0.2458665867E-03      0.6030575339E-03

    ------------------------------------------------
       NWT REQUIRED            4 OUTER ITERATIONS 
       AND A TOTAL OF          6 INNER ITERATIONS.
    ------------------------------------------------

 NO OUTPUT CONTROL FOR STRESS PERIOD   15   TIME STEP    5
 
 SOLVING FOR HEAD 
                                                   Max.-Head-Change                         Max.-Flux-Residual
  Residual-Control   Outer-Iter.   Inner-Iter.     Column Row Layer    Maximum-Head-Change  Column Row Layer    Maximum-Flux-Residual          L2-NORM 
          0                 1           2             4    7     1       0.1620934238E-01       4    7    1         0.8504318790E+00      0.2089685112E+01
          0                 2           2             4    7     1      -0.1576732317E-02       4    7    1        -0.8504354458E-01      0.2089682320E+00
          0                 3           1             4    7     1       0.1073695762E-03       4    7    1         0.5953047319E-02      0.1462773235E-01
          0                 4           1             4    7     1      -0.4272338738E-05       4    7    1        -0.2434799908E-03      0.5982757594E-03

    ------------------------------------------------
       NWT REQUIRED            4 OUTER ITERATIONS 
       AND A TOTAL OF          6 INNER ITERATIONS.
    ------------------------------------------------

 NO OUTPUT CONTROL FOR STRESS PERIOD   15   TIME STEP    6
 
 SOLVING FOR HEAD 
                                                   Max.-Head-Change                         Max.-Flux-Residual
  Residual-Control   Outer-Iter.   Inner-Iter.     Column Row Layer    Maximum-Head-Change  Column Row Layer    Maximum-Flux-Residual          L2-NORM 
          0                 1           2             4    7     1       0.1605337228E-01       4    7    1         0.8422143722E+00      0.2073158862E+01
          0                 2           2             4    7     1      -0.1561560568E-02       4    7    1        -0.8422178641E-01      0.2073155435E+00
          0                 3           1             4    7     1       0.1063364372E-03       4    7    1         0.5895524289E-02      0.1451203273E-01
          0                 4           1             4    7     1      -0.4231229205E-05       4    7    1        -0.2411272890E-03      0.5935440082E-03

    ------------------------------------------------
       NWT REQUIRED            4 OUTER ITERATIONS 
       AND A TOTAL OF          6 INNER ITERATIONS.
    ------------------------------------------------

 NO OUTPUT CONTROL FOR STRESS PERIOD   15   TIME STEP    7
 
 SOLVING FOR HEAD 
                                                   Max.-Head-Change                         Max.-Flux-Residual
  Residual-Control   Outer-Iter.   Inner-Iter.     Column Row Layer    Maximum-Head-Change  Column Row Layer    Maximum-Flux-Residual          L2-NORM 
          0                 1           2             4    7     1       0.1589946421E-01       4    7    1         0.8341055365E+00      0.2056838153E+01
          0                 2           2             4    7     1      -0.1546589400E-02       4    7    1        -0.8341089548E-01      0.2056834072E+00
          0                 3           1             4    7     1       0.1053169572E-03       4    7    1         0.5838761958E-02      0.1439778230E-01
          0                 4           1             4    7     1      -0.4190663189E-05       4    7    1        -0.2388057110E-03      0.5888671984E-03

    ------------------------------------------------
       NWT REQUIRED            4 OUTER ITERATIONS 
       AND A TOTAL OF          6 INNER ITERATIONS.
    ------------------------------------------------

 NO OUTPUT CONTROL FOR STRESS PERIOD   15   TIME STEP    8
 
 SOLVING FOR HEAD 
                                                   Max.-Head-Change                         Max.-Flux-Residual
  Residual-Control   Outer-Iter.   Inner-Iter.     Column Row Layer    Maximum-Head-Change  Column Row Layer    Maximum-Flux-Residual          L2-NORM 
          0                 1           2             4    7     1       0.1574771578E-01       4    7    1         0.8261109345E+00      0.2040718983E+01
          0                 2           2             4    7     1      -0.1531828309E-02       4    7    1        -0.8261142813E-01      0.2040714350E+00
          0                 3           1             4    7     1       0.1043117828E-03       4    7    1         0.5782799298E-02      0.1428491816E-01
          0                 4           1             4    7     1      -0.4150666364E-05       4    7    1        -0.2365168357E-03      0.5842420368E-03

    ------------------------------------------------
       NWT REQUIRED            4 OUTER ITERATIONS 
       AND A TOTAL OF          6 INNER ITERATIONS.
    ------------------------------------------------

 NO OUTPUT CONTROL FOR STRESS PERIOD   15   TIME STEP    9
 
 SOLVING FOR HEAD 
                                                   Max.-Head-Change                         Max.-Flux-Residual
  Residual-Control   Outer-Iter.   Inner-Iter.     Column Row Layer    Maximum-Head-Change  Column Row Layer    Maximum-Flux-Residual          L2-NORM 
          0                 1           2             4    7     1       0.1559795197E-01       4    7    1         0.8182209846E+00      0.2024798693E+01
          0                 2           2             4    7     1      -0.1517260270E-02       4    7    1        -0.8182242616E-01      0.2024793598E+00
          0                 3           1             4    7     1       0.1033197545E-03       4    7    1         0.5727569205E-02      0.1417348646E-01
          0                 4           1             4    7     1      -0.4111192794E-05       4    7    1        -0.2342579282E-03      0.5796932900E-03

    ------------------------------------------------
       NWT REQUIRED            4 OUTER ITERATIONS 
       AND A TOTAL OF          6 INNER ITERATIONS.
    ------------------------------------------------

 NO OUTPUT CONTROL FOR STRESS PERIOD   15   TIME STEP   10
 
 SOLVING FOR HEAD 
                                                   Max.-Head-Change                         Max.-Flux-Residual
  Residual-Control   Outer-Iter.   Inner-Iter.     Column Row Layer    Maximum-Head-Change  Column Row Layer    Maximum-Flux-Residual          L2-NORM 
          0                 1           2             4    7     1       0.1545027739E-01       4    7    1         0.8104412558E+00      0.2009081289E+01
          0                 2           2             4    7     1      -0.1502895460E-02       4    7    1        -0.8104444643E-01      0.2009075596E+00
          0                 3           1             4    7     1       0.1023415653E-03       4    7    1         0.5673110678E-02      0.1406346715E-01
          0                 4           1             4    7     1      -0.4072269418E-05       4    7    1        -0.2320305684E-03      0.5751926792E-03

    ------------------------------------------------
       NWT REQUIRED            4 OUTER ITERATIONS 
       AND A TOTAL OF          6 INNER ITERATIONS.
    ------------------------------------------------

 NO OUTPUT CONTROL FOR STRESS PERIOD   15   TIME STEP   11
 
 SOLVING FOR HEAD 
                                                   Max.-Head-Change                         Max.-Flux-Residual
  Residual-Control   Outer-Iter.   Inner-Iter.     Column Row Layer    Maximum-Head-Change  Column Row Layer    Maximum-Flux-Residual          L2-NORM 
          0                 1           2             4    7     1       0.1530478525E-01       4    7    1         0.8027771728E+00      0.1993556641E+01
          0                 2           2             4    7     1      -0.1488742942E-02       4    7    1        -0.8027803146E-01      0.1993550355E+00
          0                 3           1             4    7     1       0.1013778319E-03       4    7    1         0.5619461659E-02      0.1395478255E-01
          0                 4           1             4    7     1      -0.4033921221E-05       4    7    1        -0.2298363020E-03      0.5707499887E-03

    ------------------------------------------------
       NWT REQUIRED            4 OUTER ITERATIONS 
       AND A TOTAL OF          6 INNER ITERATIONS.
    ------------------------------------------------

 NO OUTPUT CONTROL FOR STRESS PERIOD   15   TIME STEP   12
 
 SOLVING FOR HEAD 
                                                   Max.-Head-Change                         Max.-Flux-Residual
  Residual-Control   Outer-Iter.   Inner-Iter.     Column Row Layer    Maximum-Head-Change  Column Row Layer    Maximum-Flux-Residual          L2-NORM 
          0                 1           2             4    7     1       0.1516102836E-01       4    7    1         0.7952042796E+00      0.1978220406E+01
          0                 2           2             4    7     1      -0.1474759220E-02       4    7    1        -0.7952073562E-01      0.1978213684E+00
          0                 3           1             4    7     1       0.1004255934E-03       4    7    1         0.5566450997E-02      0.1384742914E-01
          0                 4           1             4    7     1      -0.3996031116E-05       4    7    1        -0.2276681698E-03      0.5663660583E-03

    ------------------------------------------------
       NWT REQUIRED            4 OUTER ITERATIONS 
       AND A TOTAL OF          6 INNER ITERATIONS.
    ------------------------------------------------

 NO OUTPUT CONTROL FOR STRESS PERIOD   15   TIME STEP   13
 
 SOLVING FOR HEAD 
                                                   Max.-Head-Change                         Max.-Flux-Residual
  Residual-Control   Outer-Iter.   Inner-Iter.     Column Row Layer    Maximum-Head-Change  Column Row Layer    Maximum-Flux-Residual          L2-NORM 
          0                 1           2             4    7     1       0.1501938363E-01       4    7    1         0.7877433226E+00      0.1963075020E+01
          0                 2           2             4    7     1      -0.1460980955E-02       4    7    1        -0.7877463356E-01      0.1963067735E+00
          0                 3           1             4    7     1       0.9948734577E-04       4    7    1         0.5514223893E-02      0.1374138844E-01

    ------------------------------------------------
       NWT REQUIRED            3 OUTER ITERATIONS 
       AND A TOTAL OF          5 INNER ITERATIONS.
    ------------------------------------------------

 NO OUTPUT CONTROL FOR STRESS PERIOD   15   TIME STEP   14
 
 SOLVING FOR HEAD 
                                                   Max.-Head-Change                         Max.-Flux-Residual
  Residual-Control   Outer-Iter.   Inner-Iter.     Column Row Layer    Maximum-Head-Change  Column Row Layer    Maximum-Flux-Residual          L2-NORM 
          0                 1           2             4    7     1       0.1487962231E-01       4    7    1         0.7803819469E+00      0.1948108057E+01
          0                 2           2             4    7     1      -0.1447385897E-02       4    7    1        -0.7803848976E-01      0.1948100302E+00
          0                 3           1             4    7     1       0.9856157294E-04       4    7    1         0.5462693842E-02      0.1363661775E-01

    ------------------------------------------------
       NWT REQUIRED            3 OUTER ITERATIONS 
       AND A TOTAL OF          5 INNER ITERATIONS.
    ------------------------------------------------

 NO OUTPUT CONTROL FOR STRESS PERIOD   15   TIME STEP   15
 
 SOLVING FOR HEAD 
                                                   Max.-Head-Change                         Max.-Flux-Residual
  Residual-Control   Outer-Iter.   Inner-Iter.     Column Row Layer    Maximum-Head-Change  Column Row Layer    Maximum-Flux-Residual          L2-NORM 
          0                 1           2             4    7     1       0.1474176495E-01       4    7    1         0.7731208655E+00      0.1933327623E+01
          0                 2           2             4    7     1      -0.1434309231E-02       4    7    1        -0.7734756381E-01      0.1933415867E+00
          0                 3           1             4    7     1       0.9767109911E-04       4    7    1         0.5414328890E-02      0.1353380434E-01

    ------------------------------------------------
       NWT REQUIRED            3 OUTER ITERATIONS 
       AND A TOTAL OF          5 INNER ITERATIONS.
    ------------------------------------------------

 NO OUTPUT CONTROL FOR STRESS PERIOD   15   TIME STEP   16
 
 SOLVING FOR HEAD 
                                                   Max.-Head-Change                         Max.-Flux-Residual
  Residual-Control   Outer-Iter.   Inner-Iter.     Column Row Layer    Maximum-Head-Change  Column Row Layer    Maximum-Flux-Residual          L2-NORM 
          0                 1           2             4    7     1       0.1460241429E-01       4    7    1         0.7659333683E+00      0.1918715011E+01
          0                 2           2             4    7     1      -0.1420421196E-02       4    7    1        -0.7659363804E-01      0.1918706576E+00
          0                 3           1             4    7     1       0.9672537662E-04       4    7    1         0.5361554140E-02      0.1343085669E-01

    ------------------------------------------------
       NWT REQUIRED            3 OUTER ITERATIONS 
       AND A TOTAL OF          5 INNER ITERATIONS.
    ------------------------------------------------

 NO OUTPUT CONTROL FOR STRESS PERIOD   15   TIME STEP   17
 
 SOLVING FOR HEAD 
                                                   Max.-Head-Change                         Max.-Flux-Residual
  Residual-Control   Outer-Iter.   Inner-Iter.     Column Row Layer    Maximum-Head-Change  Column Row Layer    Maximum-Flux-Residual          L2-NORM 
          0                 1           2             4    7     1       0.1446560439E-01       4    7    1         0.7587186511E+00      0.1904240894E+01
          0                 2           2             4    7     1      -0.1407113222E-02       4    7    1        -0.7587215943E-01      0.1904232036E+00
          0                 3           1             4    7     1       0.9581915359E-04       4    7    1         0.5311050678E-02      0.1332953779E-01

    ------------------------------------------------
       NWT REQUIRED            3 OUTER ITERATIONS 
       AND A TOTAL OF          5 INNER ITERATIONS.
    ------------------------------------------------

 NO OUTPUT CONTROL FOR STRESS PERIOD   15   TIME STEP   18
 
 SOLVING FOR HEAD 
                                                   Max.-Head-Change                         Max.-Flux-Residual
  Residual-Control   Outer-Iter.   Inner-Iter.     Column Row Layer    Maximum-Head-Change  Column Row Layer    Maximum-Flux-Residual          L2-NORM 
          0                 1           2             4    7     1       0.1433067026E-01       4    7    1         0.7516032736E+00      0.1889940573E+01
          0                 2           2             4    7     1      -0.1393987712E-02       4    7    1        -0.7516061499E-01      0.1889931305E+00
          0                 3           1             4    7     1       0.9492535592E-04       4    7    1         0.5261242606E-02      0.1322941678E-01

    ------------------------------------------------
       NWT REQUIRED            3 OUTER ITERATIONS 
       AND A TOTAL OF          5 INNER ITERATIONS.
    ------------------------------------------------

 NO OUTPUT CONTROL FOR STRESS PERIOD   15   TIME STEP   19
 
 SOLVING FOR HEAD 
                                                   Max.-Head-Change                         Max.-Flux-Residual
  Residual-Control   Outer-Iter.   Inner-Iter.     Column Row Layer    Maximum-Head-Change  Column Row Layer    Maximum-Flux-Residual          L2-NORM 
          0                 1           2             4    7     1       0.1419784050E-01       4    7    1         0.7445997982E+00      0.1875820603E+01
          0                 2           2             4    7     1      -0.1381066901E-02       4    7    1        -0.7446026097E-01      0.1875811073E+00
          0                 3           1             4    7     1       0.9404549747E-04       4    7    1         0.5212217856E-02      0.1313061634E-01

    ------------------------------------------------
       NWT REQUIRED            3 OUTER ITERATIONS 
       AND A TOTAL OF          5 INNER ITERATIONS.
    ------------------------------------------------

 NO OUTPUT CONTROL FOR STRESS PERIOD   15   TIME STEP   20
 
 SOLVING FOR HEAD 
                                                   Max.-Head-Change                         Max.-Flux-Residual
  Residual-Control   Outer-Iter.   Inner-Iter.     Column Row Layer    Maximum-Head-Change  Column Row Layer    Maximum-Flux-Residual          L2-NORM 
          0                 1           2             4    7     1       0.1406692414E-01       4    7    1         0.7376981065E+00      0.1861862379E+01
          0                 2           2             4    7     1      -0.1368332217E-02       4    7    1        -0.7377008551E-01      0.1861852527E+00
          0                 3           1             4    7     1       0.9317831370E-04       4    7    1         0.5163905621E-02      0.1303286620E-01

    ------------------------------------------------
       NWT REQUIRED            3 OUTER ITERATIONS 
       AND A TOTAL OF          5 INNER ITERATIONS.
    ------------------------------------------------

 NO OUTPUT CONTROL FOR STRESS PERIOD   15   TIME STEP   21
 
 SOLVING FOR HEAD 
                                                   Max.-Head-Change                         Max.-Flux-Residual
  Residual-Control   Outer-Iter.   Inner-Iter.     Column Row Layer    Maximum-Head-Change  Column Row Layer    Maximum-Flux-Residual          L2-NORM 
          0                 1           2             4    7     1       0.1393774275E-01       4    7    1         0.7308882977E+00      0.1848071087E+01
          0                 2           2             4    7     1      -0.1355766300E-02       4    7    1        -0.7308909849E-01      0.1848060891E+00
          0                 3           1             4    7     1       0.9232262244E-04       4    7    1         0.5116236582E-02      0.1293632958E-01

    ------------------------------------------------
       NWT REQUIRED            3 OUTER ITERATIONS 
       AND A TOTAL OF          5 INNER ITERATIONS.
    ------------------------------------------------

 NO OUTPUT CONTROL FOR STRESS PERIOD   15   TIME STEP   22
 
 SOLVING FOR HEAD 
                                                   Max.-Head-Change                         Max.-Flux-Residual
  Residual-Control   Outer-Iter.   Inner-Iter.     Column Row Layer    Maximum-Head-Change  Column Row Layer    Maximum-Flux-Residual          L2-NORM 
          0                 1           2             4    7     1       0.1381053392E-01       4    7    1         0.7241830919E+00      0.1834450139E+01
          0                 2           2             4    7     1      -0.1343392261E-02       4    7    1        -0.7241857194E-01      0.1834439773E+00
          0                 3           1             4    7     1       0.9147999695E-04       4    7    1         0.5069299737E-02      0.1284098218E-01

    ------------------------------------------------
       NWT REQUIRED            3 OUTER ITERATIONS 
       AND A TOTAL OF          5 INNER ITERATIONS.
    ------------------------------------------------

 NO OUTPUT CONTROL FOR STRESS PERIOD   15   TIME STEP   23
 
 SOLVING FOR HEAD 
                                                   Max.-Head-Change                         Max.-Flux-Residual
  Residual-Control   Outer-Iter.   Inner-Iter.     Column Row Layer    Maximum-Head-Change  Column Row Layer    Maximum-Flux-Residual          L2-NORM 
          0                 1           2             4    7     1       0.1368511177E-01       4    7    1         0.7175728357E+00      0.1820982168E+01
          0                 2           2             4    7     1      -0.1331192020E-02       4    7    1        -0.7175754054E-01      0.1820971420E+00
          0                 3           1             4    7     1       0.9064920667E-04       4    7    1         0.5023027590E-02      0.1274669252E-01

    ------------------------------------------------
       NWT REQUIRED            3 OUTER ITERATIONS 
       AND A TOTAL OF          5 INNER ITERATIONS.
    ------------------------------------------------

 NO OUTPUT CONTROL FOR STRESS PERIOD   15   TIME STEP   24
 
 SOLVING FOR HEAD 
                                                   Max.-Head-Change                         Max.-Flux-Residual
  Residual-Control   Outer-Iter.   Inner-Iter.     Column Row Layer    Maximum-Head-Change  Column Row Layer    Maximum-Flux-Residual          L2-NORM 
          0                 1           2             4    7     1       0.1356130433E-01       4    7    1         0.7110478903E+00      0.1807680525E+01
          0                 2           2             4    7     1      -0.1319148848E-02       4    7    1        -0.7110504036E-01      0.1807669822E+00
          0                 3           1             4    7     1       0.8982911201E-04       4    7    1         0.4977352595E-02      0.1265357501E-01

    ------------------------------------------------
       NWT REQUIRED            3 OUTER ITERATIONS 
       AND A TOTAL OF          5 INNER ITERATIONS.
    ------------------------------------------------

 NO OUTPUT CONTROL FOR STRESS PERIOD   15   TIME STEP   25
 
 SOLVING FOR HEAD 
                                                   Max.-Head-Change                         Max.-Flux-Residual
  Residual-Control   Outer-Iter.   Inner-Iter.     Column Row Layer    Maximum-Head-Change  Column Row Layer    Maximum-Flux-Residual          L2-NORM 
          0                 1           2             4    7     1       0.1343934492E-01       4    7    1         0.7046213146E+00      0.1794530080E+01
          0                 2           2             4    7     1      -0.1307285442E-02       4    7    1        -0.7046237730E-01      0.1794519014E+00
          0                 3           1             4    7     1       0.8902125869E-04       4    7    1         0.4932366217E-02      0.1256153870E-01

    ------------------------------------------------
       NWT REQUIRED            3 OUTER ITERATIONS 
       AND A TOTAL OF          5 INNER ITERATIONS.
    ------------------------------------------------

 NO OUTPUT CONTROL FOR STRESS PERIOD   15   TIME STEP   26
 
 SOLVING FOR HEAD 
                                                   Max.-Head-Change                         Max.-Flux-Residual
  Residual-Control   Outer-Iter.   Inner-Iter.     Column Row Layer    Maximum-Head-Change  Column Row Layer    Maximum-Flux-Residual          L2-NORM 
          0                 1           2             4    7     1       0.1331919083E-01       4    7    1         0.6982905563E+00      0.1781540551E+01
          0                 2           2             4    7     1      -0.1295597647E-02       4    7    1        -0.6982929617E-01      0.1781529124E+00
          0                 3           1             4    7     1       0.8822536410E-04       4    7    1         0.4888050575E-02      0.1247057996E-01

    ------------------------------------------------
       NWT REQUIRED            3 OUTER ITERATIONS 
       AND A TOTAL OF          5 INNER ITERATIONS.
    ------------------------------------------------

 NO OUTPUT CONTROL FOR STRESS PERIOD   15   TIME STEP   27
 
 SOLVING FOR HEAD 
                                                   Max.-Head-Change                         Max.-Flux-Residual
  Residual-Control   Outer-Iter.   Inner-Iter.     Column Row Layer    Maximum-Head-Change  Column Row Layer    Maximum-Flux-Residual          L2-NORM 
          0                 1           2             4    7     1       0.1320052785E-01       4    7    1         0.6920387499E+00      0.1768693330E+01
          0                 2           2             4    7     1      -0.1284054897E-02       4    7    1        -0.6920411033E-01      0.1768681849E+00
          0                 3           1             4    7     1       0.8743934613E-04       4    7    1         0.4844287578E-02      0.1238065820E-01

    ------------------------------------------------
       NWT REQUIRED            3 OUTER ITERATIONS 
       AND A TOTAL OF          5 INNER ITERATIONS.
    ------------------------------------------------

 NO OUTPUT CONTROL FOR STRESS PERIOD   15   TIME STEP   28
 
 SOLVING FOR HEAD 
                                                   Max.-Head-Change                         Max.-Flux-Residual
  Residual-Control   Outer-Iter.   Inner-Iter.     Column Row Layer    Maximum-Head-Change  Column Row Layer    Maximum-Flux-Residual          L2-NORM 
          0                 1           2             4    7     1       0.1308367477E-01       4    7    1         0.6858789062E+00      0.1764264588E+01
          0                 2           2             4    7     1      -0.1272688204E-02       4    7    1        -0.6858812085E-01      0.1801820703E+00
          0                 3           1             4    7     1       0.8666531673E-04       4    7    1         0.4801168360E-02      0.1260624088E-01

    ------------------------------------------------
       NWT REQUIRED            3 OUTER ITERATIONS 
       AND A TOTAL OF          5 INNER ITERATIONS.
    ------------------------------------------------

 NO OUTPUT CONTROL FOR STRESS PERIOD   15   TIME STEP   29
 
 SOLVING FOR HEAD 
                                                   Max.-Head-Change                         Max.-Flux-Residual
  Residual-Control   Outer-Iter.   Inner-Iter.     Column Row Layer    Maximum-Head-Change  Column Row Layer    Maximum-Flux-Residual          L2-NORM 
          0                 1           2             4    7     1       0.1296863108E-01       4    7    1         0.6798055780E+00      0.2078193538E+01
          0                 2           2             4    7     1      -0.1261497512E-02       4    7    1        -0.6798078287E-01      0.2061806641E+00
          0                 3           1             4    7     1       0.8590327187E-04       4    7    1         0.4758654728E-02      0.1428293137E-01

    ------------------------------------------------
       NWT REQUIRED            3 OUTER ITERATIONS 
       AND A TOTAL OF          5 INNER ITERATIONS.
    ------------------------------------------------

 NO OUTPUT CONTROL FOR STRESS PERIOD   15   TIME STEP   30



 STREAM LISTING     PERIOD     15   STEP       30

 LAYER ROW COL. STREAM  RCH.  FLOW INTO     FLOW TO   FLOW OUT OF   OVRLND.     DIRECT     STREAM       STREAM     STREAM     STREAM   STREAMBED  STREAMBED
                SEG.NO.  NO.  STRM. RCH.    AQUIFER    STRM. RCH.    RUNOFF     PRECIP       ET          HEAD       DEPTH      WIDTH   CONDCTNC.   GRADIENT

   1    1    1     1     1    3.6751E+01  2.9262E-01   3.6458E+01  0.000E+00  0.000E+00  0.000E+00  1.09435E+03  1.306E+00  1.510E+01  6.795E-02  1.435E+00
   1    2    2     1     2    3.6458E+01  4.5310E-01   3.6005E+01  0.000E+00  0.000E+00  0.000E+00  1.08936E+03  1.303E+00  1.504E+01  1.053E-01  1.434E+00
   1    3    3     1     3    3.6005E+01  3.8635E-01   3.5618E+01  0.000E+00  0.000E+00  0.000E+00  1.08372E+03  1.300E+00  1.497E+01  8.985E-02  1.433E+00
   1    3    4     1     4    3.5618E+01  3.5572E-01   3.5263E+01  0.000E+00  0.000E+00  0.000E+00  1.07870E+03  1.297E+00  1.492E+01  8.278E-02  1.432E+00
   1    4    5     2     1    3.3263E+01  3.4544E-01   3.2917E+01  0.000E+00  0.000E+00  0.000E+00  1.07336E+03  1.429E+00  1.200E+01  7.800E-02  1.476E+00
   1    5    6     2     2    3.2917E+01  2.6525E-01   3.2652E+01  0.000E+00  0.000E+00  0.000E+00  1.06793E+03  1.421E+00  1.200E+01  6.000E-02  1.474E+00
   1    6    6     2     3    3.2652E+01  2.6484E-01   3.2387E+01  0.000E+00  0.000E+00  0.000E+00  1.06321E+03  1.414E+00  1.200E+01  6.000E-02  1.471E+00
   1    7    6     2     4    3.2387E+01  2.6442E-01   3.2123E+01  0.000E+00  0.000E+00  0.000E+00  1.05848E+03  1.407E+00  1.200E+01  6.000E-02  1.469E+00
   1    8    6     2     5    3.2123E+01  2.6401E-01   3.1859E+01  0.000E+00  0.000E+00  0.000E+00  1.05376E+03  1.400E+00  1.200E+01  6.000E-02  1.467E+00
   1    3    5     3     1    2.0000E+00  2.8252E-01   1.7175E+00  0.000E+00  0.000E+00  0.000E+00  1.07555E+03  1.909E+00  9.636E+00  7.227E-02  1.955E+00
   1    3    6     3     2    1.7175E+00  2.4905E-01   1.4684E+00  0.000E+00  0.000E+00  0.000E+00  1.07264E+03  1.727E+00  8.909E+00  6.682E-02  1.864E+00
   1    3    7     3     3    1.4684E+00  1.9718E-01   1.2712E+00  0.000E+00  0.000E+00  0.000E+00  1.06987E+03  1.555E+00  8.218E+00  5.547E-02  1.777E+00
   1    4    8     3     4    1.2712E+00  2.2567E-01   1.0456E+00  0.000E+00  0.000E+00  0.000E+00  1.06682E+03  1.364E+00  7.455E+00  6.709E-02  1.682E+00
   1    5    8     3     5    1.0456E+00  1.5790E-01   8.8768E-01  0.000E+00  0.000E+00  0.000E+00  1.06362E+03  1.164E+00  6.655E+00  4.991E-02  1.582E+00
   1    6    8     3     6    8.8768E-01  5.5980E-02   8.3170E-01  0.000E+00  0.000E+00  0.000E+00  1.06158E+03  1.036E+00  6.145E+00  1.844E-02  1.518E+00
   1    5   10     4     1    1.0000E+01  9.0919E-02   9.9091E+00  0.000E+00  0.000E+00  0.000E+00  1.07836E+03  6.368E-01  1.000E+01  2.500E-02  1.212E+00
   1    5    9     4     2    9.9091E+00  1.8158E-01   9.7275E+00  0.000E+00  0.000E+00  0.000E+00  1.07154E+03  6.315E-01  1.000E+01  5.000E-02  1.211E+00
   1    6    8     4     3    9.7275E+00  1.2689E-01   9.6006E+00  0.000E+00  0.000E+00  0.000E+00  1.06381E+03  6.256E-01  1.000E+01  3.500E-02  1.209E+00
   1    6    8     5     1    1.0432E+01  2.2686E-01   1.0205E+01  0.000E+00  0.000E+00  0.000E+00  1.05868E+03  6.790E-01  1.542E+01  6.166E-02  1.226E+00
   1    7    7     5     2    1.0205E+01  2.7894E-01   9.9265E+00  0.000E+00  0.000E+00  0.000E+00  1.05417E+03  6.732E-01  1.519E+01  7.594E-02  1.224E+00
   1    8    7     5     3    9.9265E+00  1.9221E-01   9.7343E+00  0.000E+00  0.000E+00  0.000E+00  1.04992E+03  6.676E-01  1.497E+01  5.241E-02  1.223E+00
   1    8    6     5     4    9.7343E+00  1.3577E-01   9.5985E+00  0.000E+00  0.000E+00  0.000E+00  1.04691E+03  6.637E-01  1.482E+01  3.706E-02  1.221E+00
   1    9    6     6     1    4.1457E+01  2.7904E-01   4.1178E+01  0.000E+00  0.000E+00  0.000E+00  1.04438E+03  1.651E+00  1.200E+01  6.000E-02  1.550E+00
   1   10    7     6     2    4.1178E+01  2.7864E-01   4.0900E+01  0.000E+00  0.000E+00  0.000E+00  1.03983E+03  1.644E+00  1.200E+01  6.000E-02  1.548E+00
   1   11    7     6     3    4.0900E+01  2.7823E-01   4.0621E+01  0.000E+00  0.000E+00  0.000E+00  1.03527E+03  1.637E+00  1.200E+01  6.000E-02  1.546E+00
   1   12    7     6     4    4.0621E+01  2.7783E-01   4.0344E+01  0.000E+00  0.000E+00  0.000E+00  1.03072E+03  1.631E+00  1.200E+01  6.000E-02  1.544E+00
   1   13    7     6     5    4.0344E+01  1.8691E-02   4.0325E+01  0.000E+00  0.000E+00  0.000E+00  1.02754E+03  1.627E+00  1.200E+01  2.400E-02  2.596E-01
   1   14    9     7     1    1.5000E+02  1.3704E+00   1.4863E+02  0.000E+00  0.000E+00  0.000E+00  1.03987E+03  2.288E+00  5.529E+01  5.593E-01  8.168E-01
   1   13    8     7     2    1.4863E+02  1.9330E+00   1.4670E+02  0.000E+00  0.000E+00  0.000E+00  1.03478E+03  2.279E+00  5.525E+01  6.148E-01  1.048E+00
   1   13    7     7     3    1.4670E+02  1.6369E+00   1.4506E+02  0.000E+00  0.000E+00  0.000E+00  1.02969E+03  2.269E+00  5.521E+01  5.584E-01  9.771E-01
   1   13    6     8     1    1.8538E+02  1.1680E+00   1.8422E+02  0.000E+00  0.000E+00  0.000E+00  1.02492E+03  3.046E+00  4.417E+01  4.501E-01  8.650E-01
   1   13    5     8     2    1.8422E+02  3.8600E-01   1.8383E+02  0.000E+00  0.000E+00  0.000E+00  1.01867E+03  3.041E+00  4.410E+01  4.494E-01  2.863E-01
   1   13    4     8     3    1.8383E+02 -1.4111E+00   1.8524E+02  0.000E+00  0.000E+00  0.000E+00  1.01242E+03  3.044E+00  4.414E+01  4.498E+00 -1.046E-01
   1   13    3     8     4    1.8524E+02 -2.9333E+00   1.8818E+02  0.000E+00  0.000E+00  0.000E+00  1.00618E+03  3.058E+00  4.434E+01  4.518E+00 -2.164E-01
   1   13    2     8     5    1.8818E+02 -1.9813E+00   1.9016E+02  0.000E+00  0.000E+00  0.000E+00  9.99948E+02  3.073E+00  4.456E+01  4.540E+00 -1.455E-01
   1   13    1     8     6    1.9016E+02 -1.6540E+00   1.9181E+02  0.000E+00  0.000E+00  0.000E+00  9.94959E+02  3.084E+00  4.472E+01  2.734E+00 -2.016E-01
   1    8    6     9     1    0.0000E+00  0.0000E+00   0.0000E+00  0.000E+00  0.000E+00  0.000E+00  1.07875E+03  0.000E+00  4.000E+00  0.000E+00  1.000E+00
   1    8    5     9     2    0.0000E+00  0.0000E+00   0.0000E+00  0.000E+00  0.000E+00  0.000E+00  1.07825E+03  0.000E+00  4.000E+00  0.000E+00  1.000E+00





UNSATURATED ZONE PACKAGE VOLUMETRIC BUDGET FOR  TIME STEP    30 STRESS PERIOD   15
  ------------------------------------------------------------------------------



     CUMULATIVE VOLUMES      L**3       RATES FOR THIS TIME STEP      L**3/T
     ------------------                 ------------------------

           IN:                                      IN:
           ---                                      ---
        INFILTRATION =   675894214.5408          INFILTRATION =           0.8475

          OUT:                                     OUT:
          ----                                     ----
              UZF ET =   436145383.5688                UZF ET =           0.7500
        UZF RECHARGE =       73224.0000          UZF RECHARGE =       0.0000E+00

            IN - OUT =   239675606.9720              IN - OUT =       9.7500E-02

          STORAGE:                                 STORAGE:
          --------                                 --------
      STORAGE CHANGE =   239675955.5339        STORAGE CHANGE =       9.7500E-02

 PERCENT DISCREPANCY IS DIFFERENCE BETWEEN IN-OUT MINUS CHANGE IN STORAGE
 DIVIDED BY THE AVERAGE OF IN AND OUT TIMES 100

 PERCENT DISCREPANCY =          -0.00     PERCENT DISCREPANCY =           0.00






1
  VOLUMETRIC BUDGET FOR AGRICULTURAL FIELDS AT  END OF TIME STEP   30, STRESS PERIOD  15
  ------------------------------------------------------------------------------

     CUMULATIVE VOLUMES      L**3       RATES FOR THIS TIME STEP      L**3/T
     ------------------                 ------------------------

           IN:                                      IN:
           ---                                      ---
               AG WELLS  =   429841792.0000                 AG WELLS  =           0.0000
      DIVERSION SEGMENTS =   214830320.0000        DIVERSION SEGMENTS =           0.0000
       IRRIGATION PONDS  =           0.0000         IRRIGATION PONDS  =           0.0000
           GW IRRIGATION =           0.0000             GW IRRIGATION =           0.0000
           SW IRRIGATION =           0.0000             SW IRRIGATION =           0.0000
        SYSTEM LOSSES GW =           0.0000          SYSTEM LOSSES GW =           0.0000
        SYSTEM LOSSES SW =           0.0000          SYSTEM LOSSES SW =           0.0000

                TOTAL IN =   644672128.0000                  TOTAL IN =           0.0000

          OUT:                                     OUT:
          ----                                     ----
               AG WELLS  =           0.0000                 AG WELLS  =           0.0000
      DIVERSION SEGMENTS =           0.0000        DIVERSION SEGMENTS =           0.0000
       IRRIGATION PONDS  =           0.0000         IRRIGATION PONDS  =           0.0000
           GW IRRIGATION =   429841792.0000             GW IRRIGATION =           0.0000
           SW IRRIGATION =   214834512.0000             SW IRRIGATION =           0.0000
        SYSTEM LOSSES GW =           0.0000          SYSTEM LOSSES GW =           0.0000
        SYSTEM LOSSES SW =           0.0000          SYSTEM LOSSES SW =           0.0000

               TOTAL OUT =   644676288.0000                 TOTAL OUT =           0.0000

                IN - OUT =       -4160.0000                  IN - OUT =           0.0000

     PERCENT DISCREPANCY =          -0.00         PERCENT DISCREPANCY =           0.00



1
  VOLUMETRIC BUDGET FOR ENTIRE MODEL AT END OF TIME STEP   30, STRESS PERIOD  15
  ------------------------------------------------------------------------------

     CUMULATIVE VOLUMES      L**3       RATES FOR THIS TIME STEP      L**3/T
     ------------------                 ------------------------

           IN:                                      IN:
           ---                                      ---
             STORAGE     =   693430848.0000               STORAGE     =           4.2524
       CONSTANT HEAD     =           0.0000         CONSTANT HEAD     =           0.0000
     HEAD DEP BOUNDS     =    10627485.0000       HEAD DEP BOUNDS     =           0.2881
      STREAM LEAKAGE     =   430156608.0000        STREAM LEAKAGE     =          12.9199
        UZF RECHARGE     =       73223.9531          UZF RECHARGE     =           0.0000
               GW ET     =           0.0000                 GW ET     =           0.0000
     SURFACE LEAKAGE     =           0.0000       SURFACE LEAKAGE     =           0.0000
           AG WELLS      =           0.0000             AG WELLS      =           0.0000

                TOTAL IN =  1134288128.0000                  TOTAL IN =          17.4604

          OUT:                                     OUT:
          ----                                     ----
             STORAGE     =   314620864.0000               STORAGE     =           9.1947
       CONSTANT HEAD     =           0.0000         CONSTANT HEAD     =           0.0000
     HEAD DEP BOUNDS     =    10624542.0000       HEAD DEP BOUNDS     =           0.2874
      STREAM LEAKAGE     =   379204192.0000        STREAM LEAKAGE     =           7.9797
        UZF RECHARGE     =           0.0000          UZF RECHARGE     =           0.0000
               GW ET     =           0.0000                 GW ET     =           0.0000
     SURFACE LEAKAGE     =           0.0000       SURFACE LEAKAGE     =           0.0000
           AG WELLS      =   429841792.0000             AG WELLS      =           0.0000

               TOTAL OUT =  1134291456.0000                 TOTAL OUT =          17.4618

                IN - OUT =       -3328.0000                  IN - OUT =      -1.4038E-03

     PERCENT DISCREPANCY =          -0.00         PERCENT DISCREPANCY =          -0.01






         TIME SUMMARY AT END OF TIME STEP   30 IN STRESS PERIOD   15
                    SECONDS     MINUTES      HOURS       DAYS        YEARS
                    -----------------------------------------------------------
   TIME STEP LENGTH  87667.      1461.1      24.352      1.0147     2.77799E-03
 STRESS PERIOD TIME 2.63000E+06  43833.      730.56      30.440     8.33397E-02
         TOTAL TIME 3.69063E+07 6.15106E+05  10252.      427.16      1.1695    
1
1
                            STRESS PERIOD NO.   16, LENGTH =   2630000.    
                            -----------------------------------------------

                              NUMBER OF TIME STEPS =    30

                               MULTIPLIER FOR DELT =     1.000

                            INITIAL TIME STEP SIZE =   87666.66    

 REUSING NON-PARAMETER GHB CELLS FROM LAST STRESS PERIOD

      2 GHB CELLS

 REUSING STREAM SEGMENT DATA FROM LAST STRESS PERIOD



            AREAL INFILTRATION RATE
 READING ON UNIT   19 WITH FORMAT: (FREE)              

            1           2           3           4           5           6           7           8           9          10
 ........................................................................................................................
   1   1.0000E-10  2.0000E-10   0.000       0.000       0.000       0.000       0.000       0.000       0.000       0.000    
   2   2.0000E-10  1.0000E-10  2.0000E-10   0.000       0.000      8.0000E-10  8.0000E-10  5.0000E-10   0.000       0.000    
   3    0.000      5.0000E-10  1.0000E-10  1.0000E-10  8.0000E-10  8.0000E-10  5.0000E-10  5.0000E-10   0.000       0.000    
   4   8.0000E-10  5.0000E-10  1.0000E-10  1.0000E-10  1.0000E-10  1.0000E-10  1.0000E-10  1.0000E-10  2.0000E-10   0.000    
   5   8.0000E-10  5.0000E-10  1.0000E-10  1.0000E-10  1.0000E-10  1.0000E-10  1.0000E-10  1.0000E-10  1.0000E-10  1.0000E-10
   6   8.0000E-10  5.0000E-10  5.0000E-10  2.0000E-10  2.0000E-10  1.0000E-10  1.0000E-10  1.0000E-10  1.0000E-10  5.0000E-10
   7   8.0000E-10  5.0000E-10  5.0000E-10  2.0000E-10  2.0000E-10  1.0000E-10  1.0000E-10  2.0000E-10  2.0000E-10   0.000    
   8    0.000      5.0000E-10  5.0000E-10  2.0000E-10  2.0000E-10  1.0000E-10  1.0000E-10  2.0000E-10  5.0000E-10   0.000    
   9    0.000      5.0000E-10  5.0000E-10  2.0000E-10  2.0000E-10  1.0000E-10  1.0000E-10  2.0000E-10  5.0000E-10   0.000    
  10    0.000      5.0000E-10  5.0000E-10  2.0000E-10  2.0000E-10  1.0000E-10  1.0000E-10  2.0000E-10  5.0000E-10  8.0000E-10
  11    0.000      1.0000E-10  1.0000E-10  1.0000E-10  1.0000E-10  1.0000E-10  1.0000E-10  2.0000E-10  5.0000E-10   0.000    
  12   1.0000E-10  1.0000E-10  1.0000E-10  1.0000E-10  1.0000E-10  1.0000E-10  1.0000E-10  1.0000E-10  2.0000E-10   0.000    
  13   1.0000E-10  1.0000E-10  2.0000E-10  2.0000E-10  2.0000E-10  2.0000E-10  2.0000E-10  1.0000E-10  1.0000E-10   0.000    
  14    0.000      2.0000E-10  5.0000E-10  5.0000E-10  5.0000E-10  5.0000E-10  5.0000E-10  2.0000E-10  1.0000E-10   0.000    
  15    0.000       0.000      8.0000E-10  8.0000E-10  8.0000E-10  8.0000E-10   0.000       0.000       0.000       0.000    

                  ET RATE =  5.000000E-10

 USING ET EXTINCTION DEPTH FROM PREVIOUS STRESS PERIOD. CURRENT PERIOD IS:      16

 USING EXTINCTION WATER CONTENT FROM PREVIOUS STRESS PERIOD. CURRENT PERIOD IS:      16

 USING AIR ENTRY PRESSURE FROM PREVIOUS STRESS PERIOD. CURRENT PERIOD IS:      16

 USING ROOT PRESSURE HEAD FROM PREVIOUS STRESS PERIOD. CURRENT PERIOD IS:      16

 USING ROOT ACTIVITY FROM PREVIOUS STRESS PERIOD. CURRENT PERIOD IS:      16

 PROCESSING AG STRESS PERIOD DATA

 READING AG STRESS PERIOD DATA

 READING IRRIGATION SEGMENT

 READING IRRIGATION WELL

 READING SUPPLEMENTAL WELL

 NO IRRPOND OR REUSING IRRPOND DATA FROM LAST STRESS PERIOD

 END PROCESSING AG STRESS PERIOD DATA OPTIONS
 
 SOLVING FOR HEAD 
                                                   Max.-Head-Change                         Max.-Flux-Residual
  Residual-Control   Outer-Iter.   Inner-Iter.     Column Row Layer    Maximum-Head-Change  Column Row Layer    Maximum-Flux-Residual          L2-NORM 
          0                 1           2             4    7     1       0.1285534628E-01       4    7    1         0.6738260661E+00      0.2023022767E+01
          0                 2           2             4    7     1      -0.1250477916E-02       4    7    1        -0.6738282666E-01      0.2008804063E+00
          0                 3           1             4    7     1       0.8515287891E-04       4    7    1         0.4716797821E-02      0.1393124134E-01

    ------------------------------------------------
       NWT REQUIRED            3 OUTER ITERATIONS 
       AND A TOTAL OF          5 INNER ITERATIONS.
    ------------------------------------------------

 NO OUTPUT CONTROL FOR STRESS PERIOD   16   TIME STEP    1
 
 SOLVING FOR HEAD 
                                                   Max.-Head-Change                         Max.-Flux-Residual
  Residual-Control   Outer-Iter.   Inner-Iter.     Column Row Layer    Maximum-Head-Change  Column Row Layer    Maximum-Flux-Residual          L2-NORM 
          0                 1           2             4    7     1       0.1274376738E-01       4    7    1         0.6679377497E+00      0.1973957173E+01
          0                 2           2             4    7     1      -0.1239624259E-02       4    7    1        -0.6679399016E-01      0.1961637883E+00
          0                 3           1             4    7     1       0.8441378603E-04       4    7    1         0.4675579293E-02      0.1361883528E-01

    ------------------------------------------------
       NWT REQUIRED            3 OUTER ITERATIONS 
       AND A TOTAL OF          5 INNER ITERATIONS.
    ------------------------------------------------

 NO OUTPUT CONTROL FOR STRESS PERIOD   16   TIME STEP    2
 
 SOLVING FOR HEAD 
                                                   Max.-Head-Change                         Max.-Flux-Residual
  Residual-Control   Outer-Iter.   Inner-Iter.     Column Row Layer    Maximum-Head-Change  Column Row Layer    Maximum-Flux-Residual          L2-NORM 
          0                 1           2             4    7     1       0.1263398676E-01       4    7    1         0.6621452074E+00      0.1930209563E+01
          0                 2           2             4    7     1      -0.1228945529E-02       4    7    1        -0.6621473123E-01      0.1919544191E+00
          0                 3           1             4    7     1       0.8368660539E-04       4    7    1         0.4635031210E-02      0.1333892433E-01

    ------------------------------------------------
       NWT REQUIRED            3 OUTER ITERATIONS 
       AND A TOTAL OF          5 INNER ITERATIONS.
    ------------------------------------------------

 NO OUTPUT CONTROL FOR STRESS PERIOD   16   TIME STEP    3
 
 SOLVING FOR HEAD 
                                                   Max.-Head-Change                         Max.-Flux-Residual
  Residual-Control   Outer-Iter.   Inner-Iter.     Column Row Layer    Maximum-Head-Change  Column Row Layer    Maximum-Flux-Residual          L2-NORM 
          0                 1           2             4    7     1       0.1252594689E-01       4    7    1         0.6564459032E+00      0.1891064768E+01
          0                 2           2             4    7     1      -0.1218436128E-02       4    7    1        -0.6564479624E-01      0.1881858561E+00
          0                 3           1             4    7     1       0.8297095441E-04       4    7    1         0.4595135767E-02      0.1308858999E-01

    ------------------------------------------------
       NWT REQUIRED            3 OUTER ITERATIONS 
       AND A TOTAL OF          5 INNER ITERATIONS.
    ------------------------------------------------

 NO OUTPUT CONTROL FOR STRESS PERIOD   16   TIME STEP    4
 
 SOLVING FOR HEAD 
                                                   Max.-Head-Change                         Max.-Flux-Residual
  Residual-Control   Outer-Iter.   Inner-Iter.     Column Row Layer    Maximum-Head-Change  Column Row Layer    Maximum-Flux-Residual          L2-NORM 
          0                 1           2             4    7     1       0.1241933393E-01       4    7    1         0.6508221998E+00      0.1855904119E+01
          0                 2           2             4    7     1      -0.1208065529E-02       4    7    1        -0.6508242149E-01      0.1847949936E+00
          0                 3           1             4    7     1       0.8226475616E-04       4    7    1         0.4555769567E-02      0.1286296918E-01

    ------------------------------------------------
       NWT REQUIRED            3 OUTER ITERATIONS 
       AND A TOTAL OF          5 INNER ITERATIONS.
    ------------------------------------------------

 NO OUTPUT CONTROL FOR STRESS PERIOD   16   TIME STEP    5
 
 SOLVING FOR HEAD 
                                                   Max.-Head-Change                         Max.-Flux-Residual
  Residual-Control   Outer-Iter.   Inner-Iter.     Column Row Layer    Maximum-Head-Change  Column Row Layer    Maximum-Flux-Residual          L2-NORM 
          0                 1           2             4    7     1       0.1231438001E-01       4    7    1         0.6452871332E+00      0.1824186995E+01
          0                 2           2             4    7     1      -0.1197856311E-02       4    7    1        -0.6452891052E-01      0.1817313851E+00
          0                 3           1             4    7     1       0.8156954676E-04       4    7    1         0.4517023820E-02      0.1265752687E-01

    ------------------------------------------------
       NWT REQUIRED            3 OUTER ITERATIONS 
       AND A TOTAL OF          5 INNER ITERATIONS.
    ------------------------------------------------

 NO OUTPUT CONTROL FOR STRESS PERIOD   16   TIME STEP    6
 
 SOLVING FOR HEAD 
                                                   Max.-Head-Change                         Max.-Flux-Residual
  Residual-Control   Outer-Iter.   Inner-Iter.     Column Row Layer    Maximum-Head-Change  Column Row Layer    Maximum-Flux-Residual          L2-NORM 
          0                 1           2             4    7     1       0.1221103877E-01       4    7    1         0.6398380848E+00      0.1795452871E+01
          0                 2           2             4    7     1      -0.1187803964E-02       4    7    1        -0.6398400151E-01      0.1789532428E+00
          0                 3           1             4    7     1       0.8088501997E-04       4    7    1         0.4478880212E-02      0.1247243106E-01

    ------------------------------------------------
       NWT REQUIRED            3 OUTER ITERATIONS 
       AND A TOTAL OF          5 INNER ITERATIONS.
    ------------------------------------------------

 NO OUTPUT CONTROL FOR STRESS PERIOD   16   TIME STEP    7
 
 SOLVING FOR HEAD 
                                                   Max.-Head-Change                         Max.-Flux-Residual
  Residual-Control   Outer-Iter.   Inner-Iter.     Column Row Layer    Maximum-Head-Change  Column Row Layer    Maximum-Flux-Residual          L2-NORM 
          0                 1           2             4    7     1       0.1210913306E-01       4    7    1         0.6344653242E+00      0.1769296162E+01
          0                 2           2             4    7     1      -0.1177891257E-02       4    7    1        -0.6344672139E-01      0.1764187412E+00
          0                 3           1             4    7     1       0.8021000189E-04       4    7    1         0.4441270620E-02      0.1230204853E-01

    ------------------------------------------------
       NWT REQUIRED            3 OUTER ITERATIONS 
       AND A TOTAL OF          5 INNER ITERATIONS.
    ------------------------------------------------

 NO OUTPUT CONTROL FOR STRESS PERIOD   16   TIME STEP    8
 
 SOLVING FOR HEAD 
                                                   Max.-Head-Change                         Max.-Flux-Residual
  Residual-Control   Outer-Iter.   Inner-Iter.     Column Row Layer    Maximum-Head-Change  Column Row Layer    Maximum-Flux-Residual          L2-NORM 
          0                 1           2             4    7     1       0.1200862628E-01       4    7    1         0.6291669926E+00      0.1745360985E+01
          0                 2           2             4    7     1      -0.1168114630E-02       4    7    1        -0.6291688429E-01      0.1740956227E+00
          0                 3           1             4    7     1       0.7954425051E-04       4    7    1         0.4404182061E-02      0.1214586086E-01

    ------------------------------------------------
       NWT REQUIRED            3 OUTER ITERATIONS 
       AND A TOTAL OF          5 INNER ITERATIONS.
    ------------------------------------------------

 NO OUTPUT CONTROL FOR STRESS PERIOD   16   TIME STEP    9
 
 SOLVING FOR HEAD 
                                                   Max.-Head-Change                         Max.-Flux-Residual
  Residual-Control   Outer-Iter.   Inner-Iter.     Column Row Layer    Maximum-Head-Change  Column Row Layer    Maximum-Flux-Residual          L2-NORM 
          0                 1           2             4    7     1       0.1190961876E-01       4    7    1         0.6239485209E+00      0.1723351739E+01
          0                 2           2             4    7     1      -0.1158483841E-02       4    7    1        -0.6239503330E-01      0.1719558124E+00
          0                 3           1             4    7     1       0.7888843029E-04       4    7    1         0.4367652492E-02      0.1200398875E-01

    ------------------------------------------------
       NWT REQUIRED            3 OUTER ITERATIONS 
       AND A TOTAL OF          5 INNER ITERATIONS.
    ------------------------------------------------

 NO OUTPUT CONTROL FOR STRESS PERIOD   16   TIME STEP   10
 
 SOLVING FOR HEAD 
                                                   Max.-Head-Change                         Max.-Flux-Residual
  Residual-Control   Outer-Iter.   Inner-Iter.     Column Row Layer    Maximum-Head-Change  Column Row Layer    Maximum-Flux-Residual          L2-NORM 
          0                 1           2             4    7     1       0.1181193846E-01       4    7    1         0.6188004558E+00      0.1703011488E+01
          0                 2           2             4    7     1      -0.1148982156E-02       4    7    1        -0.6188022303E-01      0.1699742089E+00
          0                 3           1             4    7     1       0.7824140130E-04       4    7    1         0.4331615802E-02      0.1186881306E-01

    ------------------------------------------------
       NWT REQUIRED            3 OUTER ITERATIONS 
       AND A TOTAL OF          5 INNER ITERATIONS.
    ------------------------------------------------

 NO OUTPUT CONTROL FOR STRESS PERIOD   16   TIME STEP   11
 
 SOLVING FOR HEAD 
                                                   Max.-Head-Change                         Max.-Flux-Residual
  Residual-Control   Outer-Iter.   Inner-Iter.     Column Row Layer    Maximum-Head-Change  Column Row Layer    Maximum-Flux-Residual          L2-NORM 
          0                 1           2             4    7     1       0.1171568485E-01       4    7    1         0.6137285324E+00      0.1684114855E+01
          0                 2           2             4    7     1      -0.1139619251E-02       4    7    1        -0.6137302709E-01      0.1681303554E+00
          0                 3           1             4    7     1       0.7760382303E-04       4    7    1         0.4296112115E-02      0.1174352642E-01

    ------------------------------------------------
       NWT REQUIRED            3 OUTER ITERATIONS 
       AND A TOTAL OF          5 INNER ITERATIONS.
    ------------------------------------------------

 NO OUTPUT CONTROL FOR STRESS PERIOD   16   TIME STEP   12
 
 SOLVING FOR HEAD 
                                                   Max.-Head-Change                         Max.-Flux-Residual
  Residual-Control   Outer-Iter.   Inner-Iter.     Column Row Layer    Maximum-Head-Change  Column Row Layer    Maximum-Flux-Residual          L2-NORM 
          0                 1           2             4    7     1       0.1162082163E-01       4    7    1         0.6087305806E+00      0.1666476920E+01
          0                 2           2             4    7     1      -0.1130391594E-02       4    7    1        -0.6087322840E-01      0.1664051039E+00
          0                 3           1             4    7     1       0.7697545372E-04       4    7    1         0.4261126212E-02      0.1162610200E-01

    ------------------------------------------------
       NWT REQUIRED            3 OUTER ITERATIONS 
       AND A TOTAL OF          5 INNER ITERATIONS.
    ------------------------------------------------

 NO OUTPUT CONTROL FOR STRESS PERIOD   16   TIME STEP   13
 
 SOLVING FOR HEAD 
                                                   Max.-Head-Change                         Max.-Flux-Residual
  Residual-Control   Outer-Iter.   Inner-Iter.     Column Row Layer    Maximum-Head-Change  Column Row Layer    Maximum-Flux-Residual          L2-NORM 
          0                 1           2             4    7     1       0.1152718160E-01       4    7    1         0.6037973894E+00      0.1649933706E+01
          0                 2           2             4    7     1      -0.1121282923E-02       4    7    1        -0.6037990584E-01      0.1647839586E+00
          0                 3           1             4    7     1       0.7635518810E-04       4    7    1         0.4226593672E-02      0.1151521378E-01

    ------------------------------------------------
       NWT REQUIRED            3 OUTER ITERATIONS 
       AND A TOTAL OF          5 INNER ITERATIONS.
    ------------------------------------------------

 NO OUTPUT CONTROL FOR STRESS PERIOD   16   TIME STEP   14
 
 SOLVING FOR HEAD 
                                                   Max.-Head-Change                         Max.-Flux-Residual
  Residual-Control   Outer-Iter.   Inner-Iter.     Column Row Layer    Maximum-Head-Change  Column Row Layer    Maximum-Flux-Residual          L2-NORM 
          0                 1           2             4    7     1       0.1143486713E-01       4    7    1         0.5989349478E+00      0.1634336856E+01
          0                 2           2             4    7     1      -0.1112303192E-02       4    7    1        -0.5989365833E-01      0.1632532543E+00
          0                 3           1             4    7     1       0.7574370223E-04       4    7    1         0.4192556352E-02      0.1141124395E-01

    ------------------------------------------------
       NWT REQUIRED            3 OUTER ITERATIONS 
       AND A TOTAL OF          5 INNER ITERATIONS.
    ------------------------------------------------

 NO OUTPUT CONTROL FOR STRESS PERIOD   16   TIME STEP   15
 
 SOLVING FOR HEAD 
                                                   Max.-Head-Change                         Max.-Flux-Residual
  Residual-Control   Outer-Iter.   Inner-Iter.     Column Row Layer    Maximum-Head-Change  Column Row Layer    Maximum-Flux-Residual          L2-NORM 
          0                 1           2             4    7     1       0.1134371184E-01       4    7    1         0.5941339048E+00      0.1619580559E+01
          0                 2           2             4    7     1      -0.1103436219E-02       4    7    1        -0.5941355079E-01      0.1618027790E+00
          0                 3           1             4    7     1       0.7513989440E-04       4    7    1         0.4158948835E-02      0.1131196565E-01

    ------------------------------------------------
       NWT REQUIRED            3 OUTER ITERATIONS 
       AND A TOTAL OF          5 INNER ITERATIONS.
    ------------------------------------------------

 NO OUTPUT CONTROL FOR STRESS PERIOD   16   TIME STEP   16
 
 SOLVING FOR HEAD 
                                                   Max.-Head-Change                         Max.-Flux-Residual
  Residual-Control   Outer-Iter.   Inner-Iter.     Column Row Layer    Maximum-Head-Change  Column Row Layer    Maximum-Flux-Residual          L2-NORM 
          0                 1           2             4    7     1       0.1125382669E-01       4    7    1         0.5894002921E+00      0.1605550550E+01
          0                 2           2             4    7     1      -0.1094692799E-02       4    7    1        -0.5894018636E-01      0.1604208506E+00
          0                 3           1             4    7     1       0.7454450042E-04       4    7    1         0.4125813340E-02      0.1121705747E-01

    ------------------------------------------------
       NWT REQUIRED            3 OUTER ITERATIONS 
       AND A TOTAL OF          5 INNER ITERATIONS.
    ------------------------------------------------

 NO OUTPUT CONTROL FOR STRESS PERIOD   16   TIME STEP   17
 
 SOLVING FOR HEAD 
                                                   Max.-Head-Change                         Max.-Flux-Residual
  Residual-Control   Outer-Iter.   Inner-Iter.     Column Row Layer    Maximum-Head-Change  Column Row Layer    Maximum-Flux-Residual          L2-NORM 
          0                 1           2             4    7     1       0.1116517887E-01       4    7    1         0.5847325344E+00      0.1592171821E+01
          0                 2           2             4    7     1      -0.1086069738E-02       4    7    1        -0.5847340753E-01      0.1591009964E+00
          0                 3           1             4    7     1       0.7395730220E-04       4    7    1         0.4093138830E-02      0.1112642318E-01

    ------------------------------------------------
       NWT REQUIRED            3 OUTER ITERATIONS 
       AND A TOTAL OF          5 INNER ITERATIONS.
    ------------------------------------------------

 NO OUTPUT CONTROL FOR STRESS PERIOD   16   TIME STEP   18
 
 SOLVING FOR HEAD 
                                                   Max.-Head-Change                         Max.-Flux-Residual
  Residual-Control   Outer-Iter.   Inner-Iter.     Column Row Layer    Maximum-Head-Change  Column Row Layer    Maximum-Flux-Residual          L2-NORM 
          0                 1           2             4    7     1       0.1107760526E-01       4    7    1         0.5801216008E+00      0.1579356395E+01
          0                 2           2             4    7     1      -0.1077551169E-02       4    7    1        -0.5801231116E-01      0.1578356760E+00
          0                 3           1             4    7     1       0.7337721992E-04       4    7    1         0.4060862108E-02      0.1103919852E-01

    ------------------------------------------------
       NWT REQUIRED            3 OUTER ITERATIONS 
       AND A TOTAL OF          5 INNER ITERATIONS.
    ------------------------------------------------

 NO OUTPUT CONTROL FOR STRESS PERIOD   16   TIME STEP   19
 
 SOLVING FOR HEAD 
                                                   Max.-Head-Change                         Max.-Flux-Residual
  Residual-Control   Outer-Iter.   Inner-Iter.     Column Row Layer    Maximum-Head-Change  Column Row Layer    Maximum-Flux-Residual          L2-NORM 
          0                 1           2             4    7     1       0.1099121684E-01       4    7    1         0.5755736923E+00      0.1567046902E+01
          0                 2           2             4    7     1      -0.1069147887E-02       4    7    1        -0.5755751739E-01      0.1566182834E+00
          0                 3           1             4    7     1       0.7280498797E-04       4    7    1         0.4029026553E-02      0.1095540263E-01

    ------------------------------------------------
       NWT REQUIRED            3 OUTER ITERATIONS 
       AND A TOTAL OF          5 INNER ITERATIONS.
    ------------------------------------------------

 NO OUTPUT CONTROL FOR STRESS PERIOD   16   TIME STEP   20
 
 SOLVING FOR HEAD 
                                                   Max.-Head-Change                         Max.-Flux-Residual
  Residual-Control   Outer-Iter.   Inner-Iter.     Column Row Layer    Maximum-Head-Change  Column Row Layer    Maximum-Flux-Residual          L2-NORM 
          0                 1           2             4    7     1       0.1090598841E-01       4    7    1         0.5710872341E+00      0.1555192831E+01
          0                 2           2             4    7     1      -0.1060857444E-02       4    7    1        -0.5710886873E-01      0.1554446757E+00
          0                 3           1             4    7     1       0.7224044009E-04       4    7    1         0.3997621177E-02      0.1087424034E-01

    ------------------------------------------------
       NWT REQUIRED            3 OUTER ITERATIONS 
       AND A TOTAL OF          5 INNER ITERATIONS.
    ------------------------------------------------

 NO OUTPUT CONTROL FOR STRESS PERIOD   16   TIME STEP   21
 
 SOLVING FOR HEAD 
                                                   Max.-Head-Change                         Max.-Flux-Residual
  Residual-Control   Outer-Iter.   Inner-Iter.     Column Row Layer    Maximum-Head-Change  Column Row Layer    Maximum-Flux-Residual          L2-NORM 
          0                 1           2             4    7     1       0.1082175364E-01       4    7    1         0.5666535897E+00      0.1543737035E+01
          0                 2           2             4    7     1      -0.1052663656E-02       4    7    1        -0.5666550152E-01      0.1543091936E+00
          0                 3           1             4    7     1       0.7168247386E-04       4    7    1         0.3966585467E-02      0.1079599508E-01

    ------------------------------------------------
       NWT REQUIRED            3 OUTER ITERATIONS 
       AND A TOTAL OF          5 INNER ITERATIONS.
    ------------------------------------------------

 NO OUTPUT CONTROL FOR STRESS PERIOD   16   TIME STEP   22
 
 SOLVING FOR HEAD 
                                                   Max.-Head-Change                         Max.-Flux-Residual
  Residual-Control   Outer-Iter.   Inner-Iter.     Column Row Layer    Maximum-Head-Change  Column Row Layer    Maximum-Flux-Residual          L2-NORM 
          0                 1           2             4    7     1       0.1073876397E-01       4    7    1         0.5622861251E+00      0.1532643349E+01
          0                 2           2             4    7     1      -0.1044590984E-02       4    7    1        -0.5622875235E-01      0.1532085949E+00
          0                 3           1             4    7     1       0.7113275510E-04       4    7    1         0.3936013033E-02      0.1071949251E-01

    ------------------------------------------------
       NWT REQUIRED            3 OUTER ITERATIONS 
       AND A TOTAL OF          5 INNER ITERATIONS.
    ------------------------------------------------

 NO OUTPUT CONTROL FOR STRESS PERIOD   16   TIME STEP   23
 
 SOLVING FOR HEAD 
                                                   Max.-Head-Change                         Max.-Flux-Residual
  Residual-Control   Outer-Iter.   Inner-Iter.     Column Row Layer    Maximum-Head-Change  Column Row Layer    Maximum-Flux-Residual          L2-NORM 
          0                 1           2             4    7     1       0.1065672009E-01       4    7    1         0.5579685560E+00      0.1521877227E+01
          0                 2           2             4    7     1      -0.1036610313E-02       4    7    1        -0.5579699280E-01      0.1521397329E+00
          0                 3           1             4    7     1       0.7058930132E-04       4    7    1         0.3905789886E-02      0.1064533869E-01

    ------------------------------------------------
       NWT REQUIRED            3 OUTER ITERATIONS 
       AND A TOTAL OF          5 INNER ITERATIONS.
    ------------------------------------------------

 NO OUTPUT CONTROL FOR STRESS PERIOD   16   TIME STEP   24
 
 SOLVING FOR HEAD 
                                                   Max.-Head-Change                         Max.-Flux-Residual
  Residual-Control   Outer-Iter.   Inner-Iter.     Column Row Layer    Maximum-Head-Change  Column Row Layer    Maximum-Flux-Residual          L2-NORM 
          0                 1           2             4    7     1       0.1057560213E-01       4    7    1         0.5537000249E+00      0.1511402116E+01
          0                 2           2             4    7     1      -0.1028719709E-02       4    7    1        -0.5537013713E-01      0.1510984495E+00
          0                 3           1             4    7     1       0.7005198092E-04       4    7    1         0.3875909994E-02      0.1057301634E-01

    ------------------------------------------------
       NWT REQUIRED            3 OUTER ITERATIONS 
       AND A TOTAL OF          5 INNER ITERATIONS.
    ------------------------------------------------

 NO OUTPUT CONTROL FOR STRESS PERIOD   16   TIME STEP   25
 
 SOLVING FOR HEAD 
                                                   Max.-Head-Change                         Max.-Flux-Residual
  Residual-Control   Outer-Iter.   Inner-Iter.     Column Row Layer    Maximum-Head-Change  Column Row Layer    Maximum-Flux-Residual          L2-NORM 
          0                 1           2             4    7     1       0.1049566333E-01       4    7    1         0.5494941617E+00      0.1501204704E+01
          0                 2           2             4    7     1      -0.1020943807E-02       4    7    1        -0.5494954830E-01      0.1500843294E+00
          0                 3           1             4    7     1       0.6952247110E-04       4    7    1         0.3846468786E-02      0.1050258490E-01

    ------------------------------------------------
       NWT REQUIRED            3 OUTER ITERATIONS 
       AND A TOTAL OF          5 INNER ITERATIONS.
    ------------------------------------------------

 NO OUTPUT CONTROL FOR STRESS PERIOD   16   TIME STEP   26
 
 SOLVING FOR HEAD 
                                                   Max.-Head-Change                         Max.-Flux-Residual
  Residual-Control   Outer-Iter.   Inner-Iter.     Column Row Layer    Maximum-Head-Change  Column Row Layer    Maximum-Flux-Residual          L2-NORM 
          0                 1           2             4    7     1       0.1041660477E-01       4    7    1         0.5453347753E+00      0.1491246169E+01
          0                 2           2             4    7     1      -0.1013253528E-02       4    7    1        -0.5453360719E-01      0.1490933447E+00
          0                 3           1             4    7     1       0.6899879220E-04       4    7    1         0.3817352929E-02      0.1043363093E-01

    ------------------------------------------------
       NWT REQUIRED            3 OUTER ITERATIONS 
       AND A TOTAL OF          5 INNER ITERATIONS.
    ------------------------------------------------

 NO OUTPUT CONTROL FOR STRESS PERIOD   16   TIME STEP   27
 
 SOLVING FOR HEAD 
                                                   Max.-Head-Change                         Max.-Flux-Residual
  Residual-Control   Outer-Iter.   Inner-Iter.     Column Row Layer    Maximum-Head-Change  Column Row Layer    Maximum-Flux-Residual          L2-NORM 
          0                 1           2             4    7     1       0.1033867625E-01       4    7    1         0.5412356895E+00      0.1481519906E+01
          0                 2           2             4    7     1      -0.1005673173E-02       4    7    1        -0.5412369626E-01      0.1481249696E+00
          0                 3           1             4    7     1       0.6848259833E-04       4    7    1         0.3788659175E-02      0.1036622258E-01

    ------------------------------------------------
       NWT REQUIRED            3 OUTER ITERATIONS 
       AND A TOTAL OF          5 INNER ITERATIONS.
    ------------------------------------------------

 NO OUTPUT CONTROL FOR STRESS PERIOD   16   TIME STEP   28
 
 SOLVING FOR HEAD 
                                                   Max.-Head-Change                         Max.-Flux-Residual
  Residual-Control   Outer-Iter.   Inner-Iter.     Column Row Layer    Maximum-Head-Change  Column Row Layer    Maximum-Flux-Residual          L2-NORM 
          0                 1           2             4    7     1       0.1026158521E-01       4    7    1         0.5371805322E+00      0.1472001363E+01
          0                 2           2             4    7     1      -0.9981742819E-03       4    7    1        -0.5371817818E-01      0.1471765515E+00
          0                 3           1             4    7     1       0.6797195208E-04       4    7    1         0.3760272921E-02      0.1030010881E-01

    ------------------------------------------------
       NWT REQUIRED            3 OUTER ITERATIONS 
       AND A TOTAL OF          5 INNER ITERATIONS.
    ------------------------------------------------

 NO OUTPUT CONTROL FOR STRESS PERIOD   16   TIME STEP   29
 
 SOLVING FOR HEAD 
                                                   Max.-Head-Change                         Max.-Flux-Residual
  Residual-Control   Outer-Iter.   Inner-Iter.     Column Row Layer    Maximum-Head-Change  Column Row Layer    Maximum-Flux-Residual          L2-NORM 
          0                 1           2             4    7     1       0.1018542734E-01       4    7    1         0.5331761276E+00      0.1452056191E+01
          0                 2           2             4    7     1      -0.9907661645E-03       4    7    1        -0.5331773546E-01      0.1452031853E+00
          0                 3           1             4    7     1       0.6746748702E-04       4    7    1         0.3732241939E-02      0.1016399951E-01

    ------------------------------------------------
       NWT REQUIRED            3 OUTER ITERATIONS 
       AND A TOTAL OF          5 INNER ITERATIONS.
    ------------------------------------------------

 NO OUTPUT CONTROL FOR STRESS PERIOD   16   TIME STEP   30



 STREAM LISTING     PERIOD     16   STEP       30

 LAYER ROW COL. STREAM  RCH.  FLOW INTO     FLOW TO   FLOW OUT OF   OVRLND.     DIRECT     STREAM       STREAM     STREAM     STREAM   STREAMBED  STREAMBED
                SEG.NO.  NO.  STRM. RCH.    AQUIFER    STRM. RCH.    RUNOFF     PRECIP       ET          HEAD       DEPTH      WIDTH   CONDCTNC.   GRADIENT

   1    1    1     1     1    3.3171E+01  2.7949E-01   3.2891E+01  0.000E+00  0.000E+00  0.000E+00  1.09432E+03  1.277E+00  1.452E+01  6.535E-02  1.426E+00
   1    2    2     1     2    3.2891E+01  4.3266E-01   3.2458E+01  0.000E+00  0.000E+00  0.000E+00  1.08933E+03  1.274E+00  1.446E+01  1.012E-01  1.425E+00
   1    3    3     1     3    3.2458E+01  3.6882E-01   3.2090E+01  0.000E+00  0.000E+00  0.000E+00  1.08369E+03  1.270E+00  1.439E+01  8.637E-02  1.423E+00
   1    3    4     1     4    3.2090E+01  3.3948E-01   3.1750E+01  0.000E+00  0.000E+00  0.000E+00  1.07868E+03  1.267E+00  1.433E+01  7.955E-02  1.422E+00
   1    4    5     2     1    2.9750E+01  3.3819E-01   2.9412E+01  0.000E+00  0.000E+00  0.000E+00  1.07327E+03  1.336E+00  1.200E+01  7.800E-02  1.445E+00
   1    5    6     2     2    2.9412E+01  2.5966E-01   2.9152E+01  0.000E+00  0.000E+00  0.000E+00  1.06784E+03  1.328E+00  1.200E+01  6.000E-02  1.443E+00
   1    6    6     2     3    2.9152E+01  2.5924E-01   2.8893E+01  0.000E+00  0.000E+00  0.000E+00  1.06311E+03  1.321E+00  1.200E+01  6.000E-02  1.440E+00
   1    7    6     2     4    2.8893E+01  2.5881E-01   2.8634E+01  0.000E+00  0.000E+00  0.000E+00  1.05839E+03  1.314E+00  1.200E+01  6.000E-02  1.438E+00
   1    8    6     2     5    2.8634E+01  2.5839E-01   2.8376E+01  0.000E+00  0.000E+00  0.000E+00  1.05367E+03  1.306E+00  1.200E+01  6.000E-02  1.435E+00
   1    3    5     3     1    2.0000E+00  2.8252E-01   1.7175E+00  0.000E+00  0.000E+00  0.000E+00  1.07555E+03  1.909E+00  9.636E+00  7.227E-02  1.955E+00
   1    3    6     3     2    1.7175E+00  2.4905E-01   1.4684E+00  0.000E+00  0.000E+00  0.000E+00  1.07264E+03  1.727E+00  8.909E+00  6.682E-02  1.864E+00
   1    3    7     3     3    1.4684E+00  1.9718E-01   1.2712E+00  0.000E+00  0.000E+00  0.000E+00  1.06987E+03  1.555E+00  8.218E+00  5.547E-02  1.777E+00
   1    4    8     3     4    1.2712E+00  2.2567E-01   1.0456E+00  0.000E+00  0.000E+00  0.000E+00  1.06682E+03  1.364E+00  7.455E+00  6.709E-02  1.682E+00
   1    5    8     3     5    1.0456E+00  1.5790E-01   8.8768E-01  0.000E+00  0.000E+00  0.000E+00  1.06362E+03  1.164E+00  6.655E+00  4.991E-02  1.582E+00
   1    6    8     3     6    8.8768E-01  5.5980E-02   8.3170E-01  0.000E+00  0.000E+00  0.000E+00  1.06158E+03  1.036E+00  6.145E+00  1.844E-02  1.518E+00
   1    5   10     4     1    1.0000E+01  9.0919E-02   9.9091E+00  0.000E+00  0.000E+00  0.000E+00  1.07836E+03  6.368E-01  1.000E+01  2.500E-02  1.212E+00
   1    5    9     4     2    9.9091E+00  1.8158E-01   9.7275E+00  0.000E+00  0.000E+00  0.000E+00  1.07154E+03  6.315E-01  1.000E+01  5.000E-02  1.211E+00
   1    6    8     4     3    9.7275E+00  1.2689E-01   9.6006E+00  0.000E+00  0.000E+00  0.000E+00  1.06381E+03  6.256E-01  1.000E+01  3.500E-02  1.209E+00
   1    6    8     5     1    1.0432E+01  2.2686E-01   1.0205E+01  0.000E+00  0.000E+00  0.000E+00  1.05868E+03  6.790E-01  1.542E+01  6.166E-02  1.226E+00
   1    7    7     5     2    1.0205E+01  2.7894E-01   9.9265E+00  0.000E+00  0.000E+00  0.000E+00  1.05417E+03  6.732E-01  1.519E+01  7.594E-02  1.224E+00
   1    8    7     5     3    9.9265E+00  1.9221E-01   9.7343E+00  0.000E+00  0.000E+00  0.000E+00  1.04992E+03  6.676E-01  1.497E+01  5.241E-02  1.223E+00
   1    8    6     5     4    9.7343E+00  1.3577E-01   9.5985E+00  0.000E+00  0.000E+00  0.000E+00  1.04691E+03  6.637E-01  1.482E+01  3.706E-02  1.221E+00
   1    9    6     6     1    3.7974E+01  2.7395E-01   3.7700E+01  0.000E+00  0.000E+00  0.000E+00  1.04429E+03  1.566E+00  1.200E+01  6.000E-02  1.522E+00
   1   10    7     6     2    3.7700E+01  2.7354E-01   3.7427E+01  0.000E+00  0.000E+00  0.000E+00  1.03974E+03  1.559E+00  1.200E+01  6.000E-02  1.520E+00
   1   11    7     6     3    3.7427E+01  2.7313E-01   3.7154E+01  0.000E+00  0.000E+00  0.000E+00  1.03519E+03  1.552E+00  1.200E+01  6.000E-02  1.517E+00
   1   12    7     6     4    3.7154E+01  2.7272E-01   3.6881E+01  0.000E+00  0.000E+00  0.000E+00  1.03064E+03  1.545E+00  1.200E+01  6.000E-02  1.515E+00
   1   13    7     6     5    3.6881E+01  1.6806E-02   3.6864E+01  0.000E+00  0.000E+00  0.000E+00  1.02745E+03  1.542E+00  1.200E+01  2.400E-02  2.334E-01
   1   14    9     7     1    1.5000E+02  1.3711E+00   1.4863E+02  0.000E+00  0.000E+00  0.000E+00  1.03987E+03  2.288E+00  5.529E+01  5.593E-01  8.171E-01
   1   13    8     7     2    1.4863E+02  1.9378E+00   1.4669E+02  0.000E+00  0.000E+00  0.000E+00  1.03478E+03  2.279E+00  5.525E+01  6.148E-01  1.051E+00
   1   13    7     7     3    1.4669E+02  1.6406E+00   1.4505E+02  0.000E+00  0.000E+00  0.000E+00  1.02969E+03  2.269E+00  5.521E+01  5.584E-01  9.794E-01
   1   13    6     8     1    1.8191E+02  1.1412E+00   1.8077E+02  0.000E+00  0.000E+00  0.000E+00  1.02490E+03  3.025E+00  4.386E+01  4.469E-01  8.511E-01
   1   13    5     8     2    1.8077E+02  3.6174E-01   1.8041E+02  0.000E+00  0.000E+00  0.000E+00  1.01864E+03  3.020E+00  4.379E+01  4.462E-01  2.702E-01
   1   13    4     8     3    1.8041E+02 -1.8933E+00   1.8231E+02  0.000E+00  0.000E+00  0.000E+00  1.01240E+03  3.025E+00  4.386E+01  4.469E+00 -1.412E-01
   1   13    3     8     4    1.8231E+02 -3.3974E+00   1.8570E+02  0.000E+00  0.000E+00  0.000E+00  1.00617E+03  3.041E+00  4.410E+01  4.494E+00 -2.520E-01
   1   13    2     8     5    1.8570E+02 -2.5105E+00   1.8821E+02  0.000E+00  0.000E+00  0.000E+00  9.99934E+02  3.059E+00  4.436E+01  4.521E+00 -1.851E-01
   1   13    1     8     6    1.8821E+02 -1.9235E+00   1.9014E+02  0.000E+00  0.000E+00  0.000E+00  9.94948E+02  3.073E+00  4.456E+01  2.724E+00 -2.353E-01
   1    8    6     9     1    0.0000E+00  0.0000E+00   0.0000E+00  0.000E+00  0.000E+00  0.000E+00  1.07875E+03  0.000E+00  4.000E+00  0.000E+00  1.000E+00
   1    8    5     9     2    0.0000E+00  0.0000E+00   0.0000E+00  0.000E+00  0.000E+00  0.000E+00  1.07825E+03  0.000E+00  4.000E+00  0.000E+00  1.000E+00





UNSATURATED ZONE PACKAGE VOLUMETRIC BUDGET FOR  TIME STEP    30 STRESS PERIOD   16
  ------------------------------------------------------------------------------



     CUMULATIVE VOLUMES      L**3       RATES FOR THIS TIME STEP      L**3/T
     ------------------                 ------------------------

           IN:                                      IN:
           ---                                      ---
        INFILTRATION =   678123139.4136          INFILTRATION =           0.8475

          OUT:                                     OUT:
          ----                                     ----
              UZF ET =   438117883.4348                UZF ET =           0.7500
        UZF RECHARGE =       73224.0000          UZF RECHARGE =       0.0000E+00

            IN - OUT =   239932031.9788              IN - OUT =       9.7500E-02

          STORAGE:                                 STORAGE:
          --------                                 --------
      STORAGE CHANGE =   239932380.5605        STORAGE CHANGE =       9.7500E-02

 PERCENT DISCREPANCY IS DIFFERENCE BETWEEN IN-OUT MINUS CHANGE IN STORAGE
 DIVIDED BY THE AVERAGE OF IN AND OUT TIMES 100

 PERCENT DISCREPANCY =          -0.00     PERCENT DISCREPANCY =           0.00






1
  VOLUMETRIC BUDGET FOR AGRICULTURAL FIELDS AT  END OF TIME STEP   30, STRESS PERIOD  16
  ------------------------------------------------------------------------------

     CUMULATIVE VOLUMES      L**3       RATES FOR THIS TIME STEP      L**3/T
     ------------------                 ------------------------

           IN:                                      IN:
           ---                                      ---
               AG WELLS  =   429841792.0000                 AG WELLS  =           0.0000
      DIVERSION SEGMENTS =   214830320.0000        DIVERSION SEGMENTS =           0.0000
       IRRIGATION PONDS  =           0.0000         IRRIGATION PONDS  =           0.0000
           GW IRRIGATION =           0.0000             GW IRRIGATION =           0.0000
           SW IRRIGATION =           0.0000             SW IRRIGATION =           0.0000
        SYSTEM LOSSES GW =           0.0000          SYSTEM LOSSES GW =           0.0000
        SYSTEM LOSSES SW =           0.0000          SYSTEM LOSSES SW =           0.0000

                TOTAL IN =   644672128.0000                  TOTAL IN =           0.0000

          OUT:                                     OUT:
          ----                                     ----
               AG WELLS  =           0.0000                 AG WELLS  =           0.0000
      DIVERSION SEGMENTS =           0.0000        DIVERSION SEGMENTS =           0.0000
       IRRIGATION PONDS  =           0.0000         IRRIGATION PONDS  =           0.0000
           GW IRRIGATION =   429841792.0000             GW IRRIGATION =           0.0000
           SW IRRIGATION =   214834512.0000             SW IRRIGATION =           0.0000
        SYSTEM LOSSES GW =           0.0000          SYSTEM LOSSES GW =           0.0000
        SYSTEM LOSSES SW =           0.0000          SYSTEM LOSSES SW =           0.0000

               TOTAL OUT =   644676288.0000                 TOTAL OUT =           0.0000

                IN - OUT =       -4160.0000                  IN - OUT =           0.0000

     PERCENT DISCREPANCY =          -0.00         PERCENT DISCREPANCY =           0.00



1
  VOLUMETRIC BUDGET FOR ENTIRE MODEL AT END OF TIME STEP   30, STRESS PERIOD  16
  ------------------------------------------------------------------------------

     CUMULATIVE VOLUMES      L**3       RATES FOR THIS TIME STEP      L**3/T
     ------------------                 ------------------------

           IN:                                      IN:
           ---                                      ---
             STORAGE     =   702858304.0000               STORAGE     =           3.2114
       CONSTANT HEAD     =           0.0000         CONSTANT HEAD     =           0.0000
     HEAD DEP BOUNDS     =    11385285.0000       HEAD DEP BOUNDS     =           0.2882
      STREAM LEAKAGE     =   464102112.0000        STREAM LEAKAGE     =          12.7587
        UZF RECHARGE     =       73223.9531          UZF RECHARGE     =           0.0000
               GW ET     =           0.0000                 GW ET     =           0.0000
     SURFACE LEAKAGE     =           0.0000       SURFACE LEAKAGE     =           0.0000
           AG WELLS      =           0.0000             AG WELLS      =           0.0000

                TOTAL IN =  1178418944.0000                  TOTAL IN =          16.2582

          OUT:                                     OUT:
          ----                                     ----
             STORAGE     =   334244608.0000               STORAGE     =           6.2437
       CONSTANT HEAD     =           0.0000         CONSTANT HEAD     =           0.0000
     HEAD DEP BOUNDS     =    11386151.0000       HEAD DEP BOUNDS     =           0.2909
      STREAM LEAKAGE     =   402952352.0000        STREAM LEAKAGE     =           9.7246
        UZF RECHARGE     =           0.0000          UZF RECHARGE     =           0.0000
               GW ET     =           0.0000                 GW ET     =           0.0000
     SURFACE LEAKAGE     =           0.0000       SURFACE LEAKAGE     =           0.0000
           AG WELLS      =   429841792.0000             AG WELLS      =           0.0000

               TOTAL OUT =  1178424832.0000                 TOTAL OUT =          16.2591

                IN - OUT =       -5888.0000                  IN - OUT =      -8.6594E-04

     PERCENT DISCREPANCY =          -0.00         PERCENT DISCREPANCY =          -0.01






         TIME SUMMARY AT END OF TIME STEP   30 IN STRESS PERIOD   16
                    SECONDS     MINUTES      HOURS       DAYS        YEARS
                    -----------------------------------------------------------
   TIME STEP LENGTH  87667.      1461.1      24.352      1.0147     2.77799E-03
 STRESS PERIOD TIME 2.63000E+06  43833.      730.56      30.440     8.33397E-02
         TOTAL TIME 3.95364E+07 6.58940E+05  10982.      457.60      1.2528    
1
1
                            STRESS PERIOD NO.   17, LENGTH =   2630000.    
                            -----------------------------------------------

                              NUMBER OF TIME STEPS =    30

                               MULTIPLIER FOR DELT =     1.000

                            INITIAL TIME STEP SIZE =   87666.66    

 REUSING NON-PARAMETER GHB CELLS FROM LAST STRESS PERIOD

      2 GHB CELLS

 REUSING STREAM SEGMENT DATA FROM LAST STRESS PERIOD



            AREAL INFILTRATION RATE
 READING ON UNIT   19 WITH FORMAT: (FREE)              

            1           2           3           4           5           6           7           8           9          10
 ........................................................................................................................
   1   1.0000E-10  2.0000E-10   0.000       0.000       0.000       0.000       0.000       0.000       0.000       0.000    
   2   2.0000E-10  1.0000E-10  2.0000E-10   0.000       0.000      8.0000E-10  8.0000E-10  5.0000E-10   0.000       0.000    
   3    0.000      5.0000E-10  1.0000E-10  1.0000E-10  8.0000E-10  8.0000E-10  5.0000E-10  5.0000E-10   0.000       0.000    
   4   8.0000E-10  5.0000E-10  1.0000E-10  1.0000E-10  1.0000E-10  1.0000E-10  1.0000E-10  1.0000E-10  2.0000E-10   0.000    
   5   8.0000E-10  5.0000E-10  1.0000E-10  1.0000E-10  1.0000E-10  1.0000E-10  1.0000E-10  1.0000E-10  1.0000E-10  1.0000E-10
   6   8.0000E-10  5.0000E-10  5.0000E-10  2.0000E-10  2.0000E-10  1.0000E-10  1.0000E-10  1.0000E-10  1.0000E-10  5.0000E-10
   7   8.0000E-10  5.0000E-10  5.0000E-10  2.0000E-10  2.0000E-10  1.0000E-10  1.0000E-10  2.0000E-10  2.0000E-10   0.000    
   8    0.000      5.0000E-10  5.0000E-10  2.0000E-10  2.0000E-10  1.0000E-10  1.0000E-10  2.0000E-10  5.0000E-10   0.000    
   9    0.000      5.0000E-10  5.0000E-10  2.0000E-10  2.0000E-10  1.0000E-10  1.0000E-10  2.0000E-10  5.0000E-10   0.000    
  10    0.000      5.0000E-10  5.0000E-10  2.0000E-10  2.0000E-10  1.0000E-10  1.0000E-10  2.0000E-10  5.0000E-10  8.0000E-10
  11    0.000      1.0000E-10  1.0000E-10  1.0000E-10  1.0000E-10  1.0000E-10  1.0000E-10  2.0000E-10  5.0000E-10   0.000    
  12   1.0000E-10  1.0000E-10  1.0000E-10  1.0000E-10  1.0000E-10  1.0000E-10  1.0000E-10  1.0000E-10  2.0000E-10   0.000    
  13   1.0000E-10  1.0000E-10  2.0000E-10  2.0000E-10  2.0000E-10  2.0000E-10  2.0000E-10  1.0000E-10  1.0000E-10   0.000    
  14    0.000      2.0000E-10  5.0000E-10  5.0000E-10  5.0000E-10  5.0000E-10  5.0000E-10  2.0000E-10  1.0000E-10   0.000    
  15    0.000       0.000      8.0000E-10  8.0000E-10  8.0000E-10  8.0000E-10   0.000       0.000       0.000       0.000    

                  ET RATE =  2.500000E-08

 USING ET EXTINCTION DEPTH FROM PREVIOUS STRESS PERIOD. CURRENT PERIOD IS:      17

 USING EXTINCTION WATER CONTENT FROM PREVIOUS STRESS PERIOD. CURRENT PERIOD IS:      17

 USING AIR ENTRY PRESSURE FROM PREVIOUS STRESS PERIOD. CURRENT PERIOD IS:      17

 USING ROOT PRESSURE HEAD FROM PREVIOUS STRESS PERIOD. CURRENT PERIOD IS:      17

 USING ROOT ACTIVITY FROM PREVIOUS STRESS PERIOD. CURRENT PERIOD IS:      17

 PROCESSING AG STRESS PERIOD DATA

 READING AG STRESS PERIOD DATA

 READING IRRIGATION SEGMENT

 READING IRRIGATION WELL

 READING SUPPLEMENTAL WELL

 NO IRRPOND OR REUSING IRRPOND DATA FROM LAST STRESS PERIOD

 END PROCESSING AG STRESS PERIOD DATA OPTIONS
 
 SOLVING FOR HEAD 
                                                   Max.-Head-Change                         Max.-Flux-Residual
  Residual-Control   Outer-Iter.   Inner-Iter.     Column Row Layer    Maximum-Head-Change  Column Row Layer    Maximum-Flux-Residual          L2-NORM 
          0                 1           2             4    7     1       0.1011001016E-01       4    7    1         0.5292127750E+00      0.1481260566E+01
          0                 2           2             4    7     1      -0.1252862703E-01       4    7    1        -0.6729214624E+00      0.1634049633E+01
          0                 3           2             4    7     1       0.1208436651E-01       4    7    1         0.6671044251E+00      0.1632674024E+01
          0                 4           2             4    7     1      -0.4808534504E-03       4    7    1        -0.2728491612E-01      0.6677967495E-01
          0                 5           1             4    7     1       0.5931853278E-05       4    7    1         0.3459427066E-03      0.8471026833E-03

    ------------------------------------------------
       NWT REQUIRED            5 OUTER ITERATIONS 
       AND A TOTAL OF          9 INNER ITERATIONS.
    ------------------------------------------------

 NO OUTPUT CONTROL FOR STRESS PERIOD   17   TIME STEP    1
 
 SOLVING FOR HEAD 
                                                   Max.-Head-Change                         Max.-Flux-Residual
  Residual-Control   Outer-Iter.   Inner-Iter.     Column Row Layer    Maximum-Head-Change  Column Row Layer    Maximum-Flux-Residual          L2-NORM 
          0                 1           2             4    7     1       0.1003562290E-01       4    7    1         0.5253039605E+00      0.1436434284E+01
          0                 2           2             4    7     1      -0.9761945570E-03       4    7    1        -0.5253053291E-01      0.1435777326E+00
          0                 3           1             4    7     1       0.6647554922E-04       4    7    1         0.3677156220E-02      0.1004434773E-01

    ------------------------------------------------
       NWT REQUIRED            3 OUTER ITERATIONS 
       AND A TOTAL OF          5 INNER ITERATIONS.
    ------------------------------------------------

 NO OUTPUT CONTROL FOR STRESS PERIOD   17   TIME STEP    2
 
 SOLVING FOR HEAD 
                                                   Max.-Head-Change                         Max.-Flux-Residual
  Residual-Control   Outer-Iter.   Inner-Iter.     Column Row Layer    Maximum-Head-Change  Column Row Layer    Maximum-Flux-Residual          L2-NORM 
          0                 1           2             4    7     1       0.9961920440E-02       4    7    1         0.5214309375E+00      0.1426184954E+01
          0                 2           2             4    7     1      -0.1251118018E-01       4    7    1        -0.6719803154E+00      0.1633605236E+01
          0                 3           2             4    7     1       0.1208021876E-01       4    7    1         0.6668755466E+00      0.1632154391E+01
          0                 4           2             4    7     1      -0.4806849038E-03       4    7    1        -0.2727535616E-01      0.6675892940E-01
          0                 5           1             4    7     1       0.5927049522E-05       4    7    1         0.3456625964E-03      0.8465967062E-03

    ------------------------------------------------
       NWT REQUIRED            5 OUTER ITERATIONS 
       AND A TOTAL OF          9 INNER ITERATIONS.
    ------------------------------------------------

 NO OUTPUT CONTROL FOR STRESS PERIOD   17   TIME STEP    3
 
 SOLVING FOR HEAD 
                                                   Max.-Head-Change                         Max.-Flux-Residual
  Residual-Control   Outer-Iter.   Inner-Iter.     Column Row Layer    Maximum-Head-Change  Column Row Layer    Maximum-Flux-Residual          L2-NORM 
          0                 1           2             4    7     1       0.9889216304E-02       4    7    1         0.5176109994E+00      0.1415108179E+01
          0                 2           2             4    7     1      -0.9619531266E-03       4    7    1        -0.5176123270E-01      0.1414695825E+00
          0                 3           2             4    7     1      -0.1146539471E-01       5    6    1        -0.6166827153E+00      0.1516754591E+01
          0                 4           2             4    7     1       0.1199995000E-01       5    6    1         0.6624993984E+00      0.1622724888E+01
          0                 5           2             4    7     1      -0.4776083315E-03       5    8    1        -0.2710300114E-01      0.6638579652E-01
          0                 6           1             4    7     1       0.5896211678E-05       5    8    1         0.3438920403E-03      0.8423276452E-03

    ------------------------------------------------
       NWT REQUIRED            6 OUTER ITERATIONS 
       AND A TOTAL OF         11 INNER ITERATIONS.
    ------------------------------------------------

 NO OUTPUT CONTROL FOR STRESS PERIOD   17   TIME STEP    4
 
 SOLVING FOR HEAD 
                                                   Max.-Head-Change                         Max.-Flux-Residual
  Residual-Control   Outer-Iter.   Inner-Iter.     Column Row Layer    Maximum-Head-Change  Column Row Layer    Maximum-Flux-Residual          L2-NORM 
          0                 1           2             4    7     1       0.9817194230E-02       4    7    1         0.5138267016E+00      0.1404767612E+01
          0                 2           2             4    7     1      -0.9549471744E-03       4    7    1        -0.5138279347E-01      0.1404469375E+00
          0                 3           2             4    7     1      -0.1146610819E-01       5    6    1        -0.6167124138E+00      0.1516833767E+01
          0                 4           2             4    7     1       0.1200021473E-01       5    6    1         0.6625135972E+00      0.1622760283E+01
          0                 5           2             4    7     1      -0.4776146663E-03       5    8    1        -0.2710334613E-01      0.6638666180E-01
          0                 6           1             4    7     1       0.5893564295E-05       5    8    1         0.3437374521E-03      0.8419511532E-03

    ------------------------------------------------
       NWT REQUIRED            6 OUTER ITERATIONS 
       AND A TOTAL OF         11 INNER ITERATIONS.
    ------------------------------------------------

 NO OUTPUT CONTROL FOR STRESS PERIOD   17   TIME STEP    5
 
 SOLVING FOR HEAD 
                                                   Max.-Head-Change                         Max.-Flux-Residual
  Residual-Control   Outer-Iter.   Inner-Iter.     Column Row Layer    Maximum-Head-Change  Column Row Layer    Maximum-Flux-Residual          L2-NORM 
          0                 1           2             4    7     1       0.9745981460E-02       4    7    1         0.5100850994E+00      0.1395039347E+01
          0                 2           2             4    7     1      -0.9480198798E-03       4    7    1        -0.5100862030E-01      0.1394830027E+00
          0                 3           2             4    7     1      -0.1146681182E-01       5    6    1        -0.6167417678E+00      0.1516912265E+01
          0                 4           2             4    7     1       0.1200047593E-01       5    6    1         0.6625276130E+00      0.1622795216E+01
          0                 5           2             4    7     1      -0.4776257622E-03       5    8    1        -0.2710396142E-01      0.6638818819E-01
          0                 6           1             4    7     1       0.5893701179E-05       5    8    1         0.3437452692E-03      0.8419681382E-03

    ------------------------------------------------
       NWT REQUIRED            6 OUTER ITERATIONS 
       AND A TOTAL OF         11 INNER ITERATIONS.
    ------------------------------------------------

 NO OUTPUT CONTROL FOR STRESS PERIOD   17   TIME STEP    6
 
 SOLVING FOR HEAD 
                                                   Max.-Head-Change                         Max.-Flux-Residual
  Residual-Control   Outer-Iter.   Inner-Iter.     Column Row Layer    Maximum-Head-Change  Column Row Layer    Maximum-Flux-Residual          L2-NORM 
          0                 1           2             4    7     1       0.9675564379E-02       4    7    1         0.5063854588E+00      0.1385820056E+01
          0                 2           2             4    7     1      -0.9411703951E-03       4    7    1        -0.5063866536E-01      0.1385680509E+00
          0                 3           2             4    7     1      -0.1146750407E-01       5    6    1        -0.6167705701E+00      0.1516989632E+01
          0                 4           2             4    7     1       0.1200072956E-01       5    6    1         0.6625412126E+00      0.1622829125E+01
          0                 5           2             4    7     1      -0.4776351565E-03       5    8    1        -0.2710448053E-01      0.6638947885E-01
          0                 6           1             4    7     1       0.5892454442E-05       5    8    1         0.3436723805E-03      0.8417897521E-03

    ------------------------------------------------
       NWT REQUIRED            6 OUTER ITERATIONS 
       AND A TOTAL OF         11 INNER ITERATIONS.
    ------------------------------------------------

 NO OUTPUT CONTROL FOR STRESS PERIOD   17   TIME STEP    7
 
 SOLVING FOR HEAD 
                                                   Max.-Head-Change                         Max.-Flux-Residual
  Residual-Control   Outer-Iter.   Inner-Iter.     Column Row Layer    Maximum-Head-Change  Column Row Layer    Maximum-Flux-Residual          L2-NORM 
          0                 1           2             4    7     1       0.9606064323E-02       4    7    1         0.5027344069E+00      0.1377044810E+01
          0                 2           2             4    7     1      -0.9344099071E-03       4    7    1        -0.5027355830E-01      0.1376956022E+00
          0                 3           2             4    7     1      -0.1146818589E-01       5    6    1        -0.6167989212E+00      0.1517065994E+01
          0                 4           2             4    7     1       0.1200097962E-01       5    6    1         0.6625546216E+00      0.1622862566E+01
          0                 5           2             4    7     1      -0.4776458098E-03       5    8    1        -0.2710507126E-01      0.6639094312E-01
          0                 6           1             4    7     1       0.5893948958E-05       5    8    1         0.3437593559E-03      0.8420026080E-03

    ------------------------------------------------
       NWT REQUIRED            6 OUTER ITERATIONS 
       AND A TOTAL OF         11 INNER ITERATIONS.
    ------------------------------------------------

 NO OUTPUT CONTROL FOR STRESS PERIOD   17   TIME STEP    8
 
 SOLVING FOR HEAD 
                                                   Max.-Head-Change                         Max.-Flux-Residual
  Residual-Control   Outer-Iter.   Inner-Iter.     Column Row Layer    Maximum-Head-Change  Column Row Layer    Maximum-Flux-Residual          L2-NORM 
          0                 1           2             4    7     1       0.9537190362E-02       4    7    1         0.4991162351E+00      0.1368614537E+01
          0                 2           2             4    7     1      -0.9277101161E-03       4    7    1        -0.4991172828E-01      0.1368562770E+00
          0                 3           2             4    7     1      -0.1146886037E-01       5    6    1        -0.6168269988E+00      0.1517141466E+01
          0                 4           2             4    7     1       0.1200122526E-01       5    6    1         0.6625677930E+00      0.1622895410E+01
          0                 5           2             4    7     1      -0.4776555861E-03       5    8    1        -0.2710561230E-01      0.6639228706E-01
          0                 6           1             4    7     1       0.5894069375E-05       5    8    1         0.3437662067E-03      0.8420197965E-03

    ------------------------------------------------
       NWT REQUIRED            6 OUTER ITERATIONS 
       AND A TOTAL OF         11 INNER ITERATIONS.
    ------------------------------------------------

 NO OUTPUT CONTROL FOR STRESS PERIOD   17   TIME STEP    9
 
 SOLVING FOR HEAD 
                                                   Max.-Head-Change                         Max.-Flux-Residual
  Residual-Control   Outer-Iter.   Inner-Iter.     Column Row Layer    Maximum-Head-Change  Column Row Layer    Maximum-Flux-Residual          L2-NORM 
          0                 1           2             4    7     1       0.9469072096E-02       4    7    1         0.4955378587E+00      0.1360499891E+01
          0                 2           2             4    7     1      -0.9210840401E-03       4    7    1        -0.4955388885E-01      0.1360473532E+00
          0                 3           2             4    7     1      -0.1146952396E-01       5    6    1        -0.6168545430E+00      0.1517215967E+01
          0                 4           2             4    7     1       0.1200146478E-01       5    6    1         0.6625806290E+00      0.1622927432E+01
          0                 5           2             4    7     1      -0.4776651197E-03       5    8    1        -0.2710613961E-01      0.6639359821E-01
          0                 6           1             4    7     1       0.5894186879E-05       5    8    1         0.3437728988E-03      0.8420356893E-03

    ------------------------------------------------
       NWT REQUIRED            6 OUTER ITERATIONS 
       AND A TOTAL OF         11 INNER ITERATIONS.
    ------------------------------------------------

 NO OUTPUT CONTROL FOR STRESS PERIOD   17   TIME STEP   10
 
 SOLVING FOR HEAD 
                                                   Max.-Head-Change                         Max.-Flux-Residual
  Residual-Control   Outer-Iter.   Inner-Iter.     Column Row Layer    Maximum-Head-Change  Column Row Layer    Maximum-Flux-Residual          L2-NORM 
          0                 1           2             4    7     1       0.9401700057E-02       4    7    1         0.4919986640E+00      0.1352640960E+01
          0                 2           2             4    7     1      -0.9145307564E-03       4    7    1        -0.4919997863E-01      0.1352630984E+00
          0                 3           2             4    7     1      -0.1147017784E-01       5    6    1        -0.6168816177E+00      0.1517289355E+01
          0                 4           2             4    7     1       0.1200169935E-01       5    6    1         0.6625931938E+00      0.1622963223E+01
          0                 5           2             4    7     1      -0.4776765568E-03       5    8    1        -0.2710677531E-01      0.6639575394E-01
          0                 6           1             4    7     1       0.5896372085E-05       5    8    1         0.3439001666E-03      0.8424535496E-03

    ------------------------------------------------
       NWT REQUIRED            6 OUTER ITERATIONS 
       AND A TOTAL OF         11 INNER ITERATIONS.
    ------------------------------------------------

 NO OUTPUT CONTROL FOR STRESS PERIOD   17   TIME STEP   11
 
 SOLVING FOR HEAD 
                                                   Max.-Head-Change                         Max.-Flux-Residual
  Residual-Control   Outer-Iter.   Inner-Iter.     Column Row Layer    Maximum-Head-Change  Column Row Layer    Maximum-Flux-Residual          L2-NORM 
          0                 1           2             4    7     1       0.9335057159E-02       4    7    1         0.4884981601E+00      0.1344997575E+01
          0                 2           2             4    7     1      -0.9080479892E-03       4    7    1        -0.4884991552E-01      0.1344995995E+00
          0                 3           2             4    7     1      -0.1147082389E-01       5    6    1        -0.6169084366E+00      0.1517362113E+01
          0                 4           2             4    7     1       0.1200192946E-01       5    6    1         0.6626055220E+00      0.1622998642E+01
          0                 5           2             4    7     1      -0.4776829137E-03       5    8    1        -0.2710712281E-01      0.6639654953E-01
          0                 6           1             4    7     1       0.5894406319E-05       5    8    1         0.3437853734E-03      0.8420723787E-03

    ------------------------------------------------
       NWT REQUIRED            6 OUTER ITERATIONS 
       AND A TOTAL OF         11 INNER ITERATIONS.
    ------------------------------------------------

 NO OUTPUT CONTROL FOR STRESS PERIOD   17   TIME STEP   12
 
 SOLVING FOR HEAD 
                                                   Max.-Head-Change                         Max.-Flux-Residual
  Residual-Control   Outer-Iter.   Inner-Iter.     Column Row Layer    Maximum-Head-Change  Column Row Layer    Maximum-Flux-Residual          L2-NORM 
          0                 1           2             4    7     1       0.9269136406E-02       4    7    1         0.4850354613E+00      0.1337549655E+01
          0                 2           2             4    7     1      -0.9016356723E-03       4    7    1        -0.4850364397E-01      0.1337550366E+00
          0                 3           2             4    7     1      -0.1147146040E-01       5    6    1        -0.6169347885E+00      0.1517433766E+01
          0                 4           2             4    7     1       0.1200215607E-01       5    6    1         0.6626176587E+00      0.1623034647E+01
          0                 5           2             4    7     1      -0.4776947343E-03       5    8    1        -0.2710778033E-01      0.6639849605E-01
          0                 6           1             4    7     1       0.5896596453E-05       5    8    1         0.3439129259E-03      0.8423858432E-03

    ------------------------------------------------
       NWT REQUIRED            6 OUTER ITERATIONS 
       AND A TOTAL OF         11 INNER ITERATIONS.
    ------------------------------------------------

 NO OUTPUT CONTROL FOR STRESS PERIOD   17   TIME STEP   13
 
 SOLVING FOR HEAD 
                                                   Max.-Head-Change                         Max.-Flux-Residual
  Residual-Control   Outer-Iter.   Inner-Iter.     Column Row Layer    Maximum-Head-Change  Column Row Layer    Maximum-Flux-Residual          L2-NORM 
          0                 1           2             4    7     1       0.9203921225E-02       4    7    1         0.4816102047E+00      0.1330261473E+01
          0                 2           2             4    7     1      -0.8952915163E-03       4    7    1        -0.4816111668E-01      0.1330266563E+00
          0                 3           2             4    7     1      -0.1147208820E-01       5    6    1        -0.6169606890E+00      0.1517505221E+01
          0                 4           2             4    7     1       0.1200237635E-01       5    6    1         0.6626294458E+00      0.1623069172E+01
          0                 5           2             4    7     1      -0.4777023534E-03       4    6    1        -0.2712049915E-01      0.6640531178E-01
          0                 6           1             4    7     1       0.5896254804E-05       5    8    1         0.3439185557E-03      0.8416182183E-03

    ------------------------------------------------
       NWT REQUIRED            6 OUTER ITERATIONS 
       AND A TOTAL OF         11 INNER ITERATIONS.
    ------------------------------------------------

 NO OUTPUT CONTROL FOR STRESS PERIOD   17   TIME STEP   14
 
 SOLVING FOR HEAD 
                                                   Max.-Head-Change                         Max.-Flux-Residual
  Residual-Control   Outer-Iter.   Inner-Iter.     Column Row Layer    Maximum-Head-Change  Column Row Layer    Maximum-Flux-Residual          L2-NORM 
          0                 1           2             4    7     1       0.9139402208E-02       4    7    1         0.4782215315E+00      0.1323113121E+01
          0                 2           2             4    7     1      -0.8890293781E-03       4    7    1        -0.4782226618E-01      0.1323215330E+00
          0                 3           2             4    7     1      -0.1147261848E-01       5    6    1        -0.6169862986E+00      0.1517572408E+01
          0                 4           2             4    7     1       0.1200251535E-01       5    6    1         0.6626410734E+00      0.1622966144E+01
          0                 5           2             4    7     1      -0.4777185475E-03       4    6    1        -0.2716197933E-01      0.6642303221E-01
          0                 6           1             4    7     1       0.5894846093E-05       4    6    1         0.3444813588E-03      0.8424089109E-03

    ------------------------------------------------
       NWT REQUIRED            6 OUTER ITERATIONS 
       AND A TOTAL OF         11 INNER ITERATIONS.
    ------------------------------------------------

 NO OUTPUT CONTROL FOR STRESS PERIOD   17   TIME STEP   15
 
 SOLVING FOR HEAD 
                                                   Max.-Head-Change                         Max.-Flux-Residual
  Residual-Control   Outer-Iter.   Inner-Iter.     Column Row Layer    Maximum-Head-Change  Column Row Layer    Maximum-Flux-Residual          L2-NORM 
          0                 1           2             4    7     1       0.9075531099E-02       4    7    1         0.4748682590E+00      0.1316085942E+01
          0                 2           2             4    7     1      -0.8828034273E-03       4    7    1        -0.4748693735E-01      0.1316069202E+00
          0                 3           2             4    7     1      -0.1147323092E-01       5    6    1        -0.6170114867E+00      0.1517643201E+01
          0                 4           2             4    7     1       0.1200274248E-01       5    6    1         0.6626525325E+00      0.1623016632E+01
          0                 5           2             4    7     1      -0.4777408192E-03       4    6    1        -0.2721808871E-01      0.6644712364E-01
          0                 6           1             4    7     1       0.5895120980E-05       4    6    1         0.3451929506E-03      0.8427112897E-03

    ------------------------------------------------
       NWT REQUIRED            6 OUTER ITERATIONS 
       AND A TOTAL OF         11 INNER ITERATIONS.
    ------------------------------------------------

 NO OUTPUT CONTROL FOR STRESS PERIOD   17   TIME STEP   16
 
 SOLVING FOR HEAD 
                                                   Max.-Head-Change                         Max.-Flux-Residual
  Residual-Control   Outer-Iter.   Inner-Iter.     Column Row Layer    Maximum-Head-Change  Column Row Layer    Maximum-Flux-Residual          L2-NORM 
          0                 1           2             4    7     1       0.9012338345E-02       4    7    1         0.4715499670E+00      0.1309164475E+01
          0                 2           2             4    7     1      -0.8766561966E-03       4    7    1        -0.4715509177E-01      0.1309136012E+00
          0                 3           2             4    7     1      -0.1147383482E-01       5    6    1        -0.6170364293E+00      0.1517711466E+01
          0                 4           2             4    7     1       0.1200296414E-01       5    6    1         0.6626637161E+00      0.1623065911E+01
          0                 5           2             4    7     1      -0.4777633472E-03       4    6    1        -0.2727321028E-01      0.6647095153E-01
          0                 6           1             4    7     1       0.5897443181E-05       4    6    1         0.3460208623E-03      0.8433123038E-03

    ------------------------------------------------
       NWT REQUIRED            6 OUTER ITERATIONS 
       AND A TOTAL OF         11 INNER ITERATIONS.
    ------------------------------------------------

 NO OUTPUT CONTROL FOR STRESS PERIOD   17   TIME STEP   17
 
 SOLVING FOR HEAD 
                                                   Max.-Head-Change                         Max.-Flux-Residual
  Residual-Control   Outer-Iter.   Inner-Iter.     Column Row Layer    Maximum-Head-Change  Column Row Layer    Maximum-Flux-Residual          L2-NORM 
          0                 1           2             4    7     1       0.8949798901E-02       4    7    1         0.4682661533E+00      0.1302341461E+01
          0                 2           2             4    7     1      -0.8705727915E-03       4    7    1        -0.4682670890E-01      0.1302299902E+00
          0                 3           2             4    7     1      -0.1147442956E-01       5    6    1        -0.6170609167E+00      0.1517778641E+01
          0                 4           2             4    7     1       0.1200318137E-01       5    6    1         0.6626746692E+00      0.1623114252E+01
          0                 5           2             4    7     1      -0.4777854764E-03       4    6    1        -0.2732733534E-01      0.6649443148E-01
          0                 6           1             4    7     1       0.5899078389E-05       4    6    1         0.3468012555E-03      0.8438194123E-03

    ------------------------------------------------
       NWT REQUIRED            6 OUTER ITERATIONS 
       AND A TOTAL OF         11 INNER ITERATIONS.
    ------------------------------------------------

 NO OUTPUT CONTROL FOR STRESS PERIOD   17   TIME STEP   18
 
 SOLVING FOR HEAD 
                                                   Max.-Head-Change                         Max.-Flux-Residual
  Residual-Control   Outer-Iter.   Inner-Iter.     Column Row Layer    Maximum-Head-Change  Column Row Layer    Maximum-Flux-Residual          L2-NORM 
          0                 1           2             4    7     1       0.8888039875E-02       4    7    1         0.4650235470E+00      0.1295610599E+01
          0                 2           2             4    7     1      -0.8645655768E-03       4    7    1        -0.4650246166E-01      0.1295554638E+00
          0                 3           2             4    7     1      -0.1147501540E-01       5    6    1        -0.6170850718E+00      0.1517844921E+01
          0                 4           2             4    7     1       0.1200339456E-01       5    6    1         0.6626854202E+00      0.1623161704E+01
          0                 5           2             4    7     1      -0.4778023276E-03       4    6    1        -0.2738021531E-01      0.6651688905E-01
          0                 6           1             4    7     1       0.5895880111E-05       4    6    1         0.3472874282E-03      0.8436399025E-03

    ------------------------------------------------
       NWT REQUIRED            6 OUTER ITERATIONS 
       AND A TOTAL OF         11 INNER ITERATIONS.
    ------------------------------------------------

 NO OUTPUT CONTROL FOR STRESS PERIOD   17   TIME STEP   19
 
 SOLVING FOR HEAD 
                                                   Max.-Head-Change                         Max.-Flux-Residual
  Residual-Control   Outer-Iter.   Inner-Iter.     Column Row Layer    Maximum-Head-Change  Column Row Layer    Maximum-Flux-Residual          L2-NORM 
          0                 1           2             4    7     1       0.8826775985E-02       4    7    1         0.4618067359E+00      0.1288957502E+01
          0                 2           2             4    7     1      -0.8586059062E-03       4    7    1        -0.4618076067E-01      0.1288885894E+00
          0                 3           2             4    7     1      -0.1147559522E-01       5    6    1        -0.6171088883E+00      0.1517910555E+01
          0                 4           2             4    7     1       0.1200360463E-01       5    6    1         0.6626960084E+00      0.1623208408E+01
          0                 5           2             4    7     1      -0.4778251446E-03       4    6    1        -0.2743250384E-01      0.6653988845E-01
          0                 6           1             4    7     1       0.5898205785E-05       4    6    1         0.3480837422E-03      0.8442428114E-03

    ------------------------------------------------
       NWT REQUIRED            6 OUTER ITERATIONS 
       AND A TOTAL OF         11 INNER ITERATIONS.
    ------------------------------------------------

 NO OUTPUT CONTROL FOR STRESS PERIOD   17   TIME STEP   20
 
 SOLVING FOR HEAD 
                                                   Max.-Head-Change                         Max.-Flux-Residual
  Residual-Control   Outer-Iter.   Inner-Iter.     Column Row Layer    Maximum-Head-Change  Column Row Layer    Maximum-Flux-Residual          L2-NORM 
          0                 1           2             4    7     1       0.8766274553E-02       4    7    1         0.4586302657E+00      0.1282382237E+01
          0                 2           2             4    7     1      -0.8527208121E-03       4    7    1        -0.4586311580E-01      0.1282295228E+00
          0                 3           2             4    7     1      -0.1147616610E-01       5    6    1        -0.6171324258E+00      0.1517975303E+01
          0                 4           2             4    7     1       0.1200380995E-01       5    6    1         0.6627063585E+00      0.1623254137E+01
          0                 5           2             4    7     1      -0.4778461628E-03       4    6    1        -0.2748377594E-01      0.6656234293E-01
          0                 6           1             4    7     1       0.5899827775E-05       4    6    1         0.3488271677E-03      0.8447558359E-03

    ------------------------------------------------
       NWT REQUIRED            6 OUTER ITERATIONS 
       AND A TOTAL OF         11 INNER ITERATIONS.
    ------------------------------------------------

 NO OUTPUT CONTROL FOR STRESS PERIOD   17   TIME STEP   21
 
 SOLVING FOR HEAD 
                                                   Max.-Head-Change                         Max.-Flux-Residual
  Residual-Control   Outer-Iter.   Inner-Iter.     Column Row Layer    Maximum-Head-Change  Column Row Layer    Maximum-Flux-Residual          L2-NORM 
          0                 1           2             4    7     1       0.8706254128E-02       4    7    1         0.4554786589E+00      0.1275881463E+01
          0                 2           2             4    7     1      -0.8468827171E-03       4    7    1        -0.4554796858E-01      0.1275779504E+00
          0                 3           2             4    7     1      -0.1147673018E-01       5    6    1        -0.6171555208E+00      0.1518038956E+01
          0                 4           2             4    7     1       0.1200391329E-01       5    6    1         0.6627164989E+00      0.1623286638E+01
          0                 5           2             4    7     1      -0.4777625940E-03       5    8    1        -0.2711172274E-01      0.6640854681E-01
          0                 6           1             4    7     1       0.5895389482E-05       5    8    1         0.3438437016E-03      0.8422253430E-03

    ------------------------------------------------
       NWT REQUIRED            6 OUTER ITERATIONS 
       AND A TOTAL OF         11 INNER ITERATIONS.
    ------------------------------------------------

 NO OUTPUT CONTROL FOR STRESS PERIOD   17   TIME STEP   22
 
 SOLVING FOR HEAD 
                                                   Max.-Head-Change                         Max.-Flux-Residual
  Residual-Control   Outer-Iter.   Inner-Iter.     Column Row Layer    Maximum-Head-Change  Column Row Layer    Maximum-Flux-Residual          L2-NORM 
          0                 1           2             4    7     1       0.8646979618E-02       4    7    1         0.4523666619E+00      0.1269445493E+01
          0                 2           2             4    7     1      -0.8411165600E-03       4    7    1        -0.4523674907E-01      0.1269327073E+00
          0                 3           2             4    7     1      -0.1147728766E-01       5    6    1        -0.6171784023E+00      0.1518102139E+01
          0                 4           2             4    7     1       0.1200410058E-01       5    6    1         0.6627265050E+00      0.1623311674E+01
          0                 5           2             4    7     1      -0.4777700485E-03       5    8    1        -0.2711213393E-01      0.6640957385E-01
          0                 6           1             4    7     1       0.5895481783E-05       5    8    1         0.3438489107E-03      0.8422322892E-03

    ------------------------------------------------
       NWT REQUIRED            6 OUTER ITERATIONS 
       AND A TOTAL OF         11 INNER ITERATIONS.
    ------------------------------------------------

 NO OUTPUT CONTROL FOR STRESS PERIOD   17   TIME STEP   23
 
 SOLVING FOR HEAD 
                                                   Max.-Head-Change                         Max.-Flux-Residual
  Residual-Control   Outer-Iter.   Inner-Iter.     Column Row Layer    Maximum-Head-Change  Column Row Layer    Maximum-Flux-Residual          L2-NORM 
          0                 1           2             4    7     1       0.8588300389E-02       4    7    1         0.4492860041E+00      0.1263071443E+01
          0                 2           2             4    7     1      -0.8354088562E-03       4    7    1        -0.4492869296E-01      0.1262937778E+00
          0                 3           2             4    7     1      -0.1147783608E-01       5    6    1        -0.6172008863E+00      0.1518164179E+01
          0                 4           2             4    7     1       0.1200428224E-01       5    6    1         0.6627362052E+00      0.1623335935E+01
          0                 5           2             4    7     1      -0.4777786789E-03       5    8    1        -0.2711261205E-01      0.6641075663E-01
          0                 6           1             4    7     1       0.5897632152E-05       5    8    1         0.3439741895E-03      0.8425403272E-03

    ------------------------------------------------
       NWT REQUIRED            6 OUTER ITERATIONS 
       AND A TOTAL OF         11 INNER ITERATIONS.
    ------------------------------------------------

 NO OUTPUT CONTROL FOR STRESS PERIOD   17   TIME STEP   24
 
 SOLVING FOR HEAD 
                                                   Max.-Head-Change                         Max.-Flux-Residual
  Residual-Control   Outer-Iter.   Inner-Iter.     Column Row Layer    Maximum-Head-Change  Column Row Layer    Maximum-Flux-Residual          L2-NORM 
          0                 1           2             4    7     1       0.8530209743E-02       4    7    1         0.4462362108E+00      0.1256751772E+01
          0                 2           2             4    7     1      -0.8297580630E-03       4    7    1        -0.4462370491E-01      0.1256601900E+00
          0                 3           2             4    7     1      -0.1147837866E-01       5    6    1        -0.6172231432E+00      0.1518225624E+01
          0                 4           2             4    7     1       0.1200446280E-01       5    6    1         0.6627458498E+00      0.1623360067E+01
          0                 5           2             4    7     1      -0.4777844649E-03       5    8    1        -0.2711292891E-01      0.6641154921E-01
          0                 6           1             4    7     1       0.5895659552E-05       5    8    1         0.3438590074E-03      0.8422586303E-03

    ------------------------------------------------
       NWT REQUIRED            6 OUTER ITERATIONS 
       AND A TOTAL OF         11 INNER ITERATIONS.
    ------------------------------------------------

 NO OUTPUT CONTROL FOR STRESS PERIOD   17   TIME STEP   25
 
 SOLVING FOR HEAD 
                                                   Max.-Head-Change                         Max.-Flux-Residual
  Residual-Control   Outer-Iter.   Inner-Iter.     Column Row Layer    Maximum-Head-Change  Column Row Layer    Maximum-Flux-Residual          L2-NORM 
          0                 1           2             4    7     1       0.8472699920E-02       4    7    1         0.4432169346E+00      0.1250492012E+01
          0                 2           2             4    7     1      -0.8241638391E-03       4    7    1        -0.4432177241E-01      0.1250326743E+00
          0                 3           2             4    7     1      -0.1147891279E-01       5    6    1        -0.6172449733E+00      0.1518286071E+01
          0                 4           2             4    7     1       0.1200463777E-01       5    6    1         0.6627551863E+00      0.1623383447E+01
          0                 5           2             4    7     1      -0.4777914289E-03       5    8    1        -0.2711331260E-01      0.6641250523E-01
          0                 6           1             4    7     1       0.5895745244E-05       5    8    1         0.3438638701E-03      0.8422687034E-03

    ------------------------------------------------
       NWT REQUIRED            6 OUTER ITERATIONS 
       AND A TOTAL OF         11 INNER ITERATIONS.
    ------------------------------------------------

 NO OUTPUT CONTROL FOR STRESS PERIOD   17   TIME STEP   26
 
 SOLVING FOR HEAD 
                                                   Max.-Head-Change                         Max.-Flux-Residual
  Residual-Control   Outer-Iter.   Inner-Iter.     Column Row Layer    Maximum-Head-Change  Column Row Layer    Maximum-Flux-Residual          L2-NORM 
          0                 1           2             4    7     1       0.8415763133E-02       4    7    1         0.4402277734E+00      0.1244295853E+01
          0                 2           2             4    7     1      -0.8186254234E-03       4    7    1        -0.4402285502E-01      0.1244116349E+00
          0                 3           2             4    7     1      -0.1147944298E-01       5    6    1        -0.6172666202E+00      0.1518346180E+01
          0                 4           2             4    7     1       0.1200481250E-01       5    6    1         0.6627645100E+00      0.1623406792E+01
          0                 5           2             4    7     1      -0.4778004838E-03       5    8    1        -0.2711381500E-01      0.6641375134E-01
          0                 6           1             4    7     1       0.5897901214E-05       5    8    1         0.3439894476E-03      0.8425779527E-03

    ------------------------------------------------
       NWT REQUIRED            6 OUTER ITERATIONS 
       AND A TOTAL OF         11 INNER ITERATIONS.
    ------------------------------------------------

 NO OUTPUT CONTROL FOR STRESS PERIOD   17   TIME STEP   27
 
 SOLVING FOR HEAD 
                                                   Max.-Head-Change                         Max.-Flux-Residual
  Residual-Control   Outer-Iter.   Inner-Iter.     Column Row Layer    Maximum-Head-Change  Column Row Layer    Maximum-Flux-Residual          L2-NORM 
          0                 1           2             4    7     1       0.8359389373E-02       4    7    1         0.4372683232E+00      0.1238146179E+01
          0                 2           2             4    7     1      -0.8131417754E-03       4    7    1        -0.4372690875E-01      0.1237952169E+00
          0                 3           2             4    7     1      -0.1147996381E-01       5    6    1        -0.6172878512E+00      0.1518404113E+01
          0                 4           2             4    7     1       0.1200498121E-01       5    6    1         0.6627735066E+00      0.1623429254E+01
          0                 5           2             4    7     1      -0.4778050984E-03       5    8    1        -0.2711406551E-01      0.6641437602E-01
          0                 6           1             4    7     1       0.5895914500E-05       5    8    1         0.3438734125E-03      0.8422971463E-03

    ------------------------------------------------
       NWT REQUIRED            6 OUTER ITERATIONS 
       AND A TOTAL OF         11 INNER ITERATIONS.
    ------------------------------------------------

 NO OUTPUT CONTROL FOR STRESS PERIOD   17   TIME STEP   28
 
 SOLVING FOR HEAD 
                                                   Max.-Head-Change                         Max.-Flux-Residual
  Residual-Control   Outer-Iter.   Inner-Iter.     Column Row Layer    Maximum-Head-Change  Column Row Layer    Maximum-Flux-Residual          L2-NORM 
          0                 1           2             4    7     1       0.8303707464E-02       4    7    1         0.4343454009E+00      0.1232054316E+01
          0                 2           2             4    7     1      -0.8077254928E-03       4    7    1        -0.4343461891E-01      0.1231845736E+00
          0                 3           2             4    7     1      -0.1148047877E-01       5    6    1        -0.6173089020E+00      0.1518463227E+01
          0                 4           2             4    7     1       0.1200514847E-01       5    6    1         0.6627824309E+00      0.1623451655E+01
          0                 5           2             4    7     1      -0.4778117554E-03       5    8    1        -0.2711443230E-01      0.6641528950E-01
          0                 6           1             4    7     1       0.5895996272E-05       5    8    1         0.3438780623E-03      0.8423043838E-03

    ------------------------------------------------
       NWT REQUIRED            6 OUTER ITERATIONS 
       AND A TOTAL OF         11 INNER ITERATIONS.
    ------------------------------------------------

 NO OUTPUT CONTROL FOR STRESS PERIOD   17   TIME STEP   29
 
 SOLVING FOR HEAD 
                                                   Max.-Head-Change                         Max.-Flux-Residual
  Residual-Control   Outer-Iter.   Inner-Iter.     Column Row Layer    Maximum-Head-Change  Column Row Layer    Maximum-Flux-Residual          L2-NORM 
          0                 1           2             4    7     1       0.8248408597E-02       4    7    1         0.4314436788E+00      0.1216062220E+01
          0                 2           2             4    7     1      -0.8023463363E-03       4    7    1        -0.4314444193E-01      0.1216039098E+00
          0                 3           2             4    7     1      -0.1148098906E-01       5    6    1        -0.6173296656E+00      0.1518536864E+01
          0                 4           2             4    7     1       0.1200531256E-01       5    6    1         0.6627911762E+00      0.1623453787E+01
          0                 5           2             4    7     1      -0.4778196868E-03       5    8    1        -0.2711487119E-01      0.6641536174E-01
          0                 6           1             4    7     1       0.5898138351E-05       5    8    1         0.3440028299E-03      0.8426043780E-03

    ------------------------------------------------
       NWT REQUIRED            6 OUTER ITERATIONS 
       AND A TOTAL OF         11 INNER ITERATIONS.
    ------------------------------------------------

 NO OUTPUT CONTROL FOR STRESS PERIOD   17   TIME STEP   30



 STREAM LISTING     PERIOD     17   STEP       30

 LAYER ROW COL. STREAM  RCH.  FLOW INTO     FLOW TO   FLOW OUT OF   OVRLND.     DIRECT     STREAM       STREAM     STREAM     STREAM   STREAMBED  STREAMBED
                SEG.NO.  NO.  STRM. RCH.    AQUIFER    STRM. RCH.    RUNOFF     PRECIP       ET          HEAD       DEPTH      WIDTH   CONDCTNC.   GRADIENT

   1    1    1     1     1    2.4716E+01  2.4383E-01   2.4472E+01  0.000E+00  0.000E+00  0.000E+00  1.09422E+03  1.174E+00  1.298E+01  5.842E-02  1.391E+00
   1    2    2     1     2    2.4472E+01  3.7705E-01   2.4095E+01  0.000E+00  0.000E+00  0.000E+00  1.08923E+03  1.169E+00  1.292E+01  9.043E-02  1.390E+00
   1    3    3     1     3    2.4095E+01  3.2100E-01   2.3774E+01  0.000E+00  0.000E+00  0.000E+00  1.08358E+03  1.164E+00  1.285E+01  7.709E-02  1.388E+00
   1    3    4     1     4    2.3774E+01  2.9513E-01   2.3479E+01  0.000E+00  0.000E+00  0.000E+00  1.07857E+03  1.159E+00  1.278E+01  7.096E-02  1.386E+00
   1    4    5     2     1    2.1479E+01  3.1960E-01   2.1159E+01  0.000E+00  0.000E+00  0.000E+00  1.07303E+03  1.097E+00  1.200E+01  7.800E-02  1.366E+00
   1    5    6     2     2    2.1159E+01  2.4532E-01   2.0914E+01  0.000E+00  0.000E+00  0.000E+00  1.06760E+03  1.089E+00  1.200E+01  6.000E-02  1.363E+00
   1    6    6     2     3    2.0914E+01  2.4487E-01   2.0669E+01  0.000E+00  0.000E+00  0.000E+00  1.06287E+03  1.081E+00  1.200E+01  6.000E-02  1.360E+00
   1    7    6     2     4    2.0669E+01  2.4441E-01   2.0424E+01  0.000E+00  0.000E+00  0.000E+00  1.05815E+03  1.073E+00  1.200E+01  6.000E-02  1.358E+00
   1    8    6     2     5    2.0424E+01  2.4395E-01   2.0180E+01  0.000E+00  0.000E+00  0.000E+00  1.05342E+03  1.066E+00  1.200E+01  6.000E-02  1.355E+00
   1    3    5     3     1    2.0000E+00  2.8252E-01   1.7175E+00  0.000E+00  0.000E+00  0.000E+00  1.07555E+03  1.909E+00  9.636E+00  7.227E-02  1.955E+00
   1    3    6     3     2    1.7175E+00  2.4905E-01   1.4684E+00  0.000E+00  0.000E+00  0.000E+00  1.07264E+03  1.727E+00  8.909E+00  6.682E-02  1.864E+00
   1    3    7     3     3    1.4684E+00  1.9718E-01   1.2712E+00  0.000E+00  0.000E+00  0.000E+00  1.06987E+03  1.555E+00  8.218E+00  5.547E-02  1.777E+00
   1    4    8     3     4    1.2712E+00  2.2567E-01   1.0456E+00  0.000E+00  0.000E+00  0.000E+00  1.06682E+03  1.364E+00  7.455E+00  6.709E-02  1.682E+00
   1    5    8     3     5    1.0456E+00  1.5790E-01   8.8768E-01  0.000E+00  0.000E+00  0.000E+00  1.06362E+03  1.164E+00  6.655E+00  4.991E-02  1.582E+00
   1    6    8     3     6    8.8768E-01  5.5980E-02   8.3170E-01  0.000E+00  0.000E+00  0.000E+00  1.06158E+03  1.036E+00  6.145E+00  1.844E-02  1.518E+00
   1    5   10     4     1    1.0000E+01  9.0919E-02   9.9091E+00  0.000E+00  0.000E+00  0.000E+00  1.07836E+03  6.368E-01  1.000E+01  2.500E-02  1.212E+00
   1    5    9     4     2    9.9091E+00  1.8158E-01   9.7275E+00  0.000E+00  0.000E+00  0.000E+00  1.07154E+03  6.315E-01  1.000E+01  5.000E-02  1.211E+00
   1    6    8     4     3    9.7275E+00  1.2689E-01   9.6006E+00  0.000E+00  0.000E+00  0.000E+00  1.06381E+03  6.256E-01  1.000E+01  3.500E-02  1.209E+00
   1    6    8     5     1    1.0432E+01  2.2686E-01   1.0205E+01  0.000E+00  0.000E+00  0.000E+00  1.05868E+03  6.790E-01  1.542E+01  6.166E-02  1.226E+00
   1    7    7     5     2    1.0205E+01  2.7894E-01   9.9265E+00  0.000E+00  0.000E+00  0.000E+00  1.05417E+03  6.732E-01  1.519E+01  7.594E-02  1.224E+00
   1    8    7     5     3    9.9265E+00  1.9221E-01   9.7343E+00  0.000E+00  0.000E+00  0.000E+00  1.04992E+03  6.676E-01  1.497E+01  5.241E-02  1.223E+00
   1    8    6     5     4    9.7343E+00  1.3577E-01   9.5985E+00  0.000E+00  0.000E+00  0.000E+00  1.04691E+03  6.637E-01  1.482E+01  3.706E-02  1.221E+00
   1    9    6     6     1    2.6062E+01  2.5489E-01   2.5807E+01  0.000E+00  0.000E+00  0.000E+00  1.04398E+03  1.248E+00  1.200E+01  6.000E-02  1.416E+00
   1   10    7     6     2    2.5807E+01  2.5445E-01   2.5552E+01  0.000E+00  0.000E+00  0.000E+00  1.03942E+03  1.241E+00  1.200E+01  6.000E-02  1.414E+00
   1   11    7     6     3    2.5552E+01  2.5401E-01   2.5298E+01  0.000E+00  0.000E+00  0.000E+00  1.03487E+03  1.233E+00  1.200E+01  6.000E-02  1.411E+00
   1   12    7     6     4    2.5298E+01  2.5356E-01   2.5045E+01  0.000E+00  0.000E+00  0.000E+00  1.03032E+03  1.226E+00  1.200E+01  6.000E-02  1.409E+00
   1   13    7     6     5    2.5045E+01  9.4498E-03   2.5035E+01  0.000E+00  0.000E+00  0.000E+00  1.02713E+03  1.222E+00  1.200E+01  2.400E-02  1.312E-01
   1   14    9     7     1    1.5000E+02  1.3718E+00   1.4863E+02  0.000E+00  0.000E+00  0.000E+00  1.03987E+03  2.288E+00  5.529E+01  5.593E-01  8.176E-01
   1   13    8     7     2    1.4863E+02  1.9420E+00   1.4669E+02  0.000E+00  0.000E+00  0.000E+00  1.03478E+03  2.279E+00  5.525E+01  6.147E-01  1.053E+00
   1   13    7     7     3    1.4669E+02  1.6478E+00   1.4504E+02  0.000E+00  0.000E+00  0.000E+00  1.02969E+03  2.269E+00  5.521E+01  5.584E-01  9.837E-01
   1   13    6     8     1    1.7007E+02  1.0887E+00   1.6898E+02  0.000E+00  0.000E+00  0.000E+00  1.02482E+03  2.949E+00  4.276E+01  4.358E-01  8.328E-01
   1   13    5     8     2    1.6898E+02  3.2623E-01   1.6866E+02  0.000E+00  0.000E+00  0.000E+00  1.01857E+03  2.945E+00  4.270E+01  4.351E-01  2.499E-01
   1   13    4     8     3    1.6866E+02 -1.9897E+00   1.7065E+02  0.000E+00  0.000E+00  0.000E+00  1.01232E+03  2.950E+00  4.277E+01  4.359E+00 -1.522E-01
   1   13    3     8     4    1.7065E+02 -3.4689E+00   1.7412E+02  0.000E+00  0.000E+00  0.000E+00  1.00609E+03  2.968E+00  4.303E+01  4.385E+00 -2.637E-01
   1   13    2     8     5    1.7412E+02 -2.5939E+00   1.7671E+02  0.000E+00  0.000E+00  0.000E+00  9.99862E+02  2.987E+00  4.331E+01  4.414E+00 -1.959E-01
   1   13    1     8     6    1.7671E+02 -2.0156E+00   1.7873E+02  0.000E+00  0.000E+00  0.000E+00  9.94877E+02  3.002E+00  4.353E+01  2.661E+00 -2.525E-01
   1    8    6     9     1    3.7174E+00  0.0000E+00   3.7174E+00  0.000E+00  0.000E+00  0.000E+00  1.08000E+03  1.251E+00  4.000E+00  0.000E+00  1.417E+00
   1    8    5     9     2    3.7174E+00  0.0000E+00   3.7174E+00  0.000E+00  0.000E+00  0.000E+00  1.07950E+03  1.251E+00  4.000E+00  0.000E+00  1.417E+00





UNSATURATED ZONE PACKAGE VOLUMETRIC BUDGET FOR  TIME STEP    30 STRESS PERIOD   17
  ------------------------------------------------------------------------------



     CUMULATIVE VOLUMES      L**3       RATES FOR THIS TIME STEP      L**3/T
     ------------------                 ------------------------

           IN:                                      IN:
           ---                                      ---
        INFILTRATION =   690130724.4421          INFILTRATION =           4.5650

          OUT:                                     OUT:
          ----                                     ----
              UZF ET =   450824690.4479                UZF ET =           4.5675
        UZF RECHARGE =       73224.0000          UZF RECHARGE =       0.0000E+00

            IN - OUT =   239232809.9942              IN - OUT =      -2.4928E-03

          STORAGE:                                 STORAGE:
          --------                                 --------
      STORAGE CHANGE =   239233157.6208        STORAGE CHANGE =      -2.4930E-03

 PERCENT DISCREPANCY IS DIFFERENCE BETWEEN IN-OUT MINUS CHANGE IN STORAGE
 DIVIDED BY THE AVERAGE OF IN AND OUT TIMES 100

 PERCENT DISCREPANCY =          -0.00     PERCENT DISCREPANCY =           0.00






1
  VOLUMETRIC BUDGET FOR AGRICULTURAL FIELDS AT  END OF TIME STEP   30, STRESS PERIOD  17
  ------------------------------------------------------------------------------

     CUMULATIVE VOLUMES      L**3       RATES FOR THIS TIME STEP      L**3/T
     ------------------                 ------------------------

           IN:                                      IN:
           ---                                      ---
               AG WELLS  =   429841792.0000                 AG WELLS  =           0.0000
      DIVERSION SEGMENTS =   224608784.0000        DIVERSION SEGMENTS =           3.7174
       IRRIGATION PONDS  =           0.0000         IRRIGATION PONDS  =           0.0000
           GW IRRIGATION =           0.0000             GW IRRIGATION =           0.0000
           SW IRRIGATION =           0.0000             SW IRRIGATION =           0.0000
        SYSTEM LOSSES GW =           0.0000          SYSTEM LOSSES GW =           0.0000
        SYSTEM LOSSES SW =           0.0000          SYSTEM LOSSES SW =           0.0000

                TOTAL IN =   654450560.0000                  TOTAL IN =           3.7174

          OUT:                                     OUT:
          ----                                     ----
               AG WELLS  =           0.0000                 AG WELLS  =           0.0000
      DIVERSION SEGMENTS =           0.0000        DIVERSION SEGMENTS =           0.0000
       IRRIGATION PONDS  =           0.0000         IRRIGATION PONDS  =           0.0000
           GW IRRIGATION =   429841792.0000             GW IRRIGATION =           0.0000
           SW IRRIGATION =   224613200.0000             SW IRRIGATION =           3.7175
        SYSTEM LOSSES GW =           0.0000          SYSTEM LOSSES GW =           0.0000
        SYSTEM LOSSES SW =           0.0000          SYSTEM LOSSES SW =           0.0000

               TOTAL OUT =   654454976.0000                 TOTAL OUT =           3.7175

                IN - OUT =       -4416.0000                  IN - OUT =      -7.4148E-05

     PERCENT DISCREPANCY =          -0.00         PERCENT DISCREPANCY =          -0.00



1
  VOLUMETRIC BUDGET FOR ENTIRE MODEL AT END OF TIME STEP   30, STRESS PERIOD  17
  ------------------------------------------------------------------------------

     CUMULATIVE VOLUMES      L**3       RATES FOR THIS TIME STEP      L**3/T
     ------------------                 ------------------------

           IN:                                      IN:
           ---                                      ---
             STORAGE     =   711465280.0000               STORAGE     =           3.1277
       CONSTANT HEAD     =           0.0000         CONSTANT HEAD     =           0.0000
     HEAD DEP BOUNDS     =    12143205.0000       HEAD DEP BOUNDS     =           0.2882
      STREAM LEAKAGE     =   496935424.0000        STREAM LEAKAGE     =          12.3395
        UZF RECHARGE     =       73223.9531          UZF RECHARGE     =           0.0000
               GW ET     =           0.0000                 GW ET     =           0.0000
     SURFACE LEAKAGE     =           0.0000       SURFACE LEAKAGE     =           0.0000
           AG WELLS      =           0.0000             AG WELLS      =           0.0000

                TOTAL IN =  1220617216.0000                  TOTAL IN =          15.7555

          OUT:                                     OUT:
          ----                                     ----
             STORAGE     =   349357856.0000               STORAGE     =           5.3972
       CONSTANT HEAD     =           0.0000         CONSTANT HEAD     =           0.0000
     HEAD DEP BOUNDS     =    12149921.0000       HEAD DEP BOUNDS     =           0.2901
      STREAM LEAKAGE     =   429273504.0000        STREAM LEAKAGE     =          10.0681
        UZF RECHARGE     =           0.0000          UZF RECHARGE     =           0.0000
               GW ET     =           0.0000                 GW ET     =           0.0000
     SURFACE LEAKAGE     =           0.0000       SURFACE LEAKAGE     =           0.0000
           AG WELLS      =   429841792.0000             AG WELLS      =           0.0000

               TOTAL OUT =  1220623104.0000                 TOTAL OUT =          15.7554

                IN - OUT =       -5888.0000                  IN - OUT =       3.3379E-05

     PERCENT DISCREPANCY =          -0.00         PERCENT DISCREPANCY =           0.00






         TIME SUMMARY AT END OF TIME STEP   30 IN STRESS PERIOD   17
                    SECONDS     MINUTES      HOURS       DAYS        YEARS
                    -----------------------------------------------------------
   TIME STEP LENGTH  87667.      1461.1      24.352      1.0147     2.77799E-03
 STRESS PERIOD TIME 2.63000E+06  43833.      730.56      30.440     8.33397E-02
         TOTAL TIME 4.21664E+07 7.02774E+05  11713.      488.04      1.3362    
1
1
                            STRESS PERIOD NO.   18, LENGTH =   2630000.    
                            -----------------------------------------------

                              NUMBER OF TIME STEPS =    30

                               MULTIPLIER FOR DELT =     1.000

                            INITIAL TIME STEP SIZE =   87666.66    

 REUSING NON-PARAMETER GHB CELLS FROM LAST STRESS PERIOD

      2 GHB CELLS

 REUSING STREAM SEGMENT DATA FROM LAST STRESS PERIOD



            AREAL INFILTRATION RATE
 READING ON UNIT   19 WITH FORMAT: (FREE)              

            1           2           3           4           5           6           7           8           9          10
 ........................................................................................................................
   1   1.0000E-10  2.0000E-10   0.000       0.000       0.000       0.000       0.000       0.000       0.000       0.000    
   2   2.0000E-10  1.0000E-10  2.0000E-10   0.000       0.000      8.0000E-10  8.0000E-10  5.0000E-10   0.000       0.000    
   3    0.000      5.0000E-10  1.0000E-10  1.0000E-10  8.0000E-10  8.0000E-10  5.0000E-10  5.0000E-10   0.000       0.000    
   4   8.0000E-10  5.0000E-10  1.0000E-10  1.0000E-10  1.0000E-10  1.0000E-10  1.0000E-10  1.0000E-10  2.0000E-10   0.000    
   5   8.0000E-10  5.0000E-10  1.0000E-10  1.0000E-10  1.0000E-10  1.0000E-10  1.0000E-10  1.0000E-10  1.0000E-10  1.0000E-10
   6   8.0000E-10  5.0000E-10  5.0000E-10  2.0000E-10  2.0000E-10  1.0000E-10  1.0000E-10  1.0000E-10  1.0000E-10  5.0000E-10
   7   8.0000E-10  5.0000E-10  5.0000E-10  2.0000E-10  2.0000E-10  1.0000E-10  1.0000E-10  2.0000E-10  2.0000E-10   0.000    
   8    0.000      5.0000E-10  5.0000E-10  2.0000E-10  2.0000E-10  1.0000E-10  1.0000E-10  2.0000E-10  5.0000E-10   0.000    
   9    0.000      5.0000E-10  5.0000E-10  2.0000E-10  2.0000E-10  1.0000E-10  1.0000E-10  2.0000E-10  5.0000E-10   0.000    
  10    0.000      5.0000E-10  5.0000E-10  2.0000E-10  2.0000E-10  1.0000E-10  1.0000E-10  2.0000E-10  5.0000E-10  8.0000E-10
  11    0.000      1.0000E-10  1.0000E-10  1.0000E-10  1.0000E-10  1.0000E-10  1.0000E-10  2.0000E-10  5.0000E-10   0.000    
  12   1.0000E-10  1.0000E-10  1.0000E-10  1.0000E-10  1.0000E-10  1.0000E-10  1.0000E-10  1.0000E-10  2.0000E-10   0.000    
  13   1.0000E-10  1.0000E-10  2.0000E-10  2.0000E-10  2.0000E-10  2.0000E-10  2.0000E-10  1.0000E-10  1.0000E-10   0.000    
  14    0.000      2.0000E-10  5.0000E-10  5.0000E-10  5.0000E-10  5.0000E-10  5.0000E-10  2.0000E-10  1.0000E-10   0.000    
  15    0.000       0.000      8.0000E-10  8.0000E-10  8.0000E-10  8.0000E-10   0.000       0.000       0.000       0.000    

                  ET RATE =  5.000000E-08

 USING ET EXTINCTION DEPTH FROM PREVIOUS STRESS PERIOD. CURRENT PERIOD IS:      18

 USING EXTINCTION WATER CONTENT FROM PREVIOUS STRESS PERIOD. CURRENT PERIOD IS:      18

 USING AIR ENTRY PRESSURE FROM PREVIOUS STRESS PERIOD. CURRENT PERIOD IS:      18

 USING ROOT PRESSURE HEAD FROM PREVIOUS STRESS PERIOD. CURRENT PERIOD IS:      18

 USING ROOT ACTIVITY FROM PREVIOUS STRESS PERIOD. CURRENT PERIOD IS:      18

 PROCESSING AG STRESS PERIOD DATA

 READING AG STRESS PERIOD DATA

 READING IRRIGATION SEGMENT

 READING IRRIGATION WELL

 READING SUPPLEMENTAL WELL

 NO IRRPOND OR REUSING IRRPOND DATA FROM LAST STRESS PERIOD

 END PROCESSING AG STRESS PERIOD DATA OPTIONS
 
 SOLVING FOR HEAD 
                                                   Max.-Head-Change                         Max.-Flux-Residual
  Residual-Control   Outer-Iter.   Inner-Iter.     Column Row Layer    Maximum-Head-Change  Column Row Layer    Maximum-Flux-Residual          L2-NORM 
          0                 1           2             4    7     1       0.8193757349E-02       4    7    1         0.4285764884E+00      0.1259620533E+01
          0                 2           2             4    7     1      -0.1194837377E-01       4    7    1        -0.6417165551E+00      0.1561922177E+01
          0                 3           2             4    7     1       0.1166171120E-01       4    7    1         0.6437788655E+00      0.1575877179E+01
          0                 4           2             4    7     1      -0.4640382550E-03       4    7    1        -0.2633104819E-01      0.6445702612E-01
          0                 5           1             4    7     1       0.5727240146E-05       4    7    1         0.3340132116E-03      0.8191909823E-03

    ------------------------------------------------
       NWT REQUIRED            5 OUTER ITERATIONS 
       AND A TOTAL OF          9 INNER ITERATIONS.
    ------------------------------------------------

 NO OUTPUT CONTROL FOR STRESS PERIOD   18   TIME STEP    1
 
 SOLVING FOR HEAD 
                                                   Max.-Head-Change                         Max.-Flux-Residual
  Residual-Control   Outer-Iter.   Inner-Iter.     Column Row Layer    Maximum-Head-Change  Column Row Layer    Maximum-Flux-Residual          L2-NORM 
          0                 1           2             4    7     1       0.8139604432E-02       4    7    1         0.4257355391E+00      0.1202143078E+01
          0                 2           2             4    7     1      -0.7917633112E-03       4    7    1        -0.4257366258E-01      0.1202130027E+00
          0                 3           2             4    7     1      -0.2285336465E-01       5    6    1        -0.1228041312E+01      0.3021427815E+01
          0                 4           2             4    7     1       0.2384221576E-01       5    6    1         0.1316230827E+01      0.3224057044E+01
          0                 5           2             4    7     1      -0.9489412662E-03       5    8    1        -0.5384788308E-01      0.1318967885E+00
          0                 6           1             4    7     1       0.1171361661E-04       5    8    1         0.6831618139E-03      0.1673363932E-02

    ------------------------------------------------
       NWT REQUIRED            6 OUTER ITERATIONS 
       AND A TOTAL OF         11 INNER ITERATIONS.
    ------------------------------------------------

 NO OUTPUT CONTROL FOR STRESS PERIOD   18   TIME STEP    2
 
 SOLVING FOR HEAD 
                                                   Max.-Head-Change                         Max.-Flux-Residual
  Residual-Control   Outer-Iter.   Inner-Iter.     Column Row Layer    Maximum-Head-Change  Column Row Layer    Maximum-Flux-Residual          L2-NORM 
          0                 1           2             4    7     1       0.8085945443E-02       4    7    1         0.4229204654E+00      0.1196005412E+01
          0                 2           2             4    7     1      -0.7865437381E-03       4    7    1        -0.4229215409E-01      0.1196005988E+00
          0                 3           2             4    7     1      -0.2289790107E-01       5    6    1        -0.1230427466E+01      0.3027316528E+01
          0                 4           2             4    7     1       0.2388821875E-01       5    6    1         0.1318770265E+01      0.3230313832E+01
          0                 5           2             4    7     1      -0.9507750400E-03       5    8    1        -0.5395193598E-01      0.1321535724E+00
          0                 6           1             4    7     1       0.1173897039E-04       5    8    1         0.6846404031E-03      0.1677000030E-02

    ------------------------------------------------
       NWT REQUIRED            6 OUTER ITERATIONS 
       AND A TOTAL OF         11 INNER ITERATIONS.
    ------------------------------------------------

 NO OUTPUT CONTROL FOR STRESS PERIOD   18   TIME STEP    3
 
 SOLVING FOR HEAD 
                                                   Max.-Head-Change                         Max.-Flux-Residual
  Residual-Control   Outer-Iter.   Inner-Iter.     Column Row Layer    Maximum-Head-Change  Column Row Layer    Maximum-Flux-Residual          L2-NORM 
          0                 1           2             4    7     1       0.8032912344E-02       4    7    1         0.4201383011E+00      0.1190325970E+01
          0                 2           2             4    7     1      -0.7813847713E-03       4    7    1        -0.4201392173E-01      0.1190317643E+00
          0                 3           2             4    7     1      -0.2291002869E-01       5    6    1        -0.1231073219E+01      0.3028921820E+01
          0                 4           2             4    7     1       0.2390049095E-01       5    6    1         0.1319447641E+01      0.3231973532E+01
          0                 5           2             4    7     1      -0.9512634877E-03       5    8    1        -0.5397965027E-01      0.1322214718E+00
          0                 6           1             4    7     1       0.1174499774E-04       5    8    1         0.6849918782E-03      0.1677864594E-02

    ------------------------------------------------
       NWT REQUIRED            6 OUTER ITERATIONS 
       AND A TOTAL OF         11 INNER ITERATIONS.
    ------------------------------------------------

 NO OUTPUT CONTROL FOR STRESS PERIOD   18   TIME STEP    4
 
 SOLVING FOR HEAD 
                                                   Max.-Head-Change                         Max.-Flux-Residual
  Residual-Control   Outer-Iter.   Inner-Iter.     Column Row Layer    Maximum-Head-Change  Column Row Layer    Maximum-Flux-Residual          L2-NORM 
          0                 1           2             4    7     1       0.7980358507E-02       4    7    1         0.4173812520E+00      0.1184999425E+01
          0                 2           2             4    7     1      -0.7762729766E-03       4    7    1        -0.4173823060E-01      0.1184965439E+00
          0                 3           2             4    7     1      -0.2292105591E-01       5    6    1        -0.1231659912E+01      0.3030381012E+01
          0                 4           2             4    7     1       0.2391162147E-01       5    6    1         0.1320061992E+01      0.3233478855E+01
          0                 5           2             4    7     1      -0.9517064954E-03       5    8    1        -0.5400478597E-01      0.1322830531E+00
          0                 6           1             4    7     1       0.1175046411E-04       5    8    1         0.6853106725E-03      0.1678641611E-02

    ------------------------------------------------
       NWT REQUIRED            6 OUTER ITERATIONS 
       AND A TOTAL OF         11 INNER ITERATIONS.
    ------------------------------------------------

 NO OUTPUT CONTROL FOR STRESS PERIOD   18   TIME STEP    5
 
 SOLVING FOR HEAD 
                                                   Max.-Head-Change                         Max.-Flux-Residual
  Residual-Control   Outer-Iter.   Inner-Iter.     Column Row Layer    Maximum-Head-Change  Column Row Layer    Maximum-Flux-Residual          L2-NORM 
          0                 1           2             4    7     1       0.7928144005E-02       4    7    1         0.4146417154E+00      0.1179947400E+01
          0                 2           2             4    7     1      -0.7711936370E-03       4    7    1        -0.4146426104E-01      0.1179873515E+00
          0                 3           2             4    7     1      -0.2293112915E-01       5    6    1        -0.1232195360E+01      0.3031713470E+01
          0                 4           2             4    7     1       0.2392176065E-01       5    6    1         0.1320621616E+01      0.3234850115E+01
          0                 5           2             4    7     1      -0.9521100463E-03       5    8    1        -0.5402768262E-01      0.1323391455E+00
          0                 6           1             4    7     1       0.1175544367E-04       5    8    1         0.6856010573E-03      0.1679364590E-02

    ------------------------------------------------
       NWT REQUIRED            6 OUTER ITERATIONS 
       AND A TOTAL OF         11 INNER ITERATIONS.
    ------------------------------------------------

 NO OUTPUT CONTROL FOR STRESS PERIOD   18   TIME STEP    6
 
 SOLVING FOR HEAD 
                                                   Max.-Head-Change                         Max.-Flux-Residual
  Residual-Control   Outer-Iter.   Inner-Iter.     Column Row Layer    Maximum-Head-Change  Column Row Layer    Maximum-Flux-Residual          L2-NORM 
          0                 1           2             4    7     1       0.7876540386E-02       4    7    1         0.4119344458E+00      0.1175129286E+01
          0                 2           2             4    7     1      -0.7661742728E-03       4    7    1        -0.4119354787E-01      0.1175006571E+00
          0                 3           2             4    7     1      -0.2294036524E-01       5    6    1        -0.1232685882E+01      0.3032934575E+01
          0                 4           2             4    7     1       0.2393103306E-01       5    6    1         0.1321133390E+01      0.3236104165E+01
          0                 5           2             4    7     1      -0.9524790993E-03       5    8    1        -0.5404862169E-01      0.1323904648E+00
          0                 6           1             4    7     1       0.1175999779E-04       5    8    1         0.6858665975E-03      0.1680000855E-02

    ------------------------------------------------
       NWT REQUIRED            6 OUTER ITERATIONS 
       AND A TOTAL OF         11 INNER ITERATIONS.
    ------------------------------------------------

 NO OUTPUT CONTROL FOR STRESS PERIOD   18   TIME STEP    7
 
 SOLVING FOR HEAD 
                                                   Max.-Head-Change                         Max.-Flux-Residual
  Residual-Control   Outer-Iter.   Inner-Iter.     Column Row Layer    Maximum-Head-Change  Column Row Layer    Maximum-Flux-Residual          L2-NORM 
          0                 1           2             4    7     1       0.7825533440E-02       4    7    1         0.4092588500E+00      0.1170482902E+01
          0                 2           2             4    7     1      -0.7612126729E-03       4    7    1        -0.4092598730E-01      0.1170300677E+00
          0                 3           2             4    7     1      -0.2294887173E-01       5    6    1        -0.1233137307E+01      0.3034059004E+01
          0                 4           2             4    7     1       0.2393954969E-01       5    6    1         0.1321603446E+01      0.3237259277E+01
          0                 5           2             4    7     1      -0.9528152699E-03       5    8    1        -0.5406769501E-01      0.1324373373E+00
          0                 6           1             4    7     1       0.1176142039E-04       5    8    1         0.6859495488E-03      0.1680212408E-02

    ------------------------------------------------
       NWT REQUIRED            6 OUTER ITERATIONS 
       AND A TOTAL OF         11 INNER ITERATIONS.
    ------------------------------------------------

 NO OUTPUT CONTROL FOR STRESS PERIOD   18   TIME STEP    8
 
 SOLVING FOR HEAD 
                                                   Max.-Head-Change                         Max.-Flux-Residual
  Residual-Control   Outer-Iter.   Inner-Iter.     Column Row Layer    Maximum-Head-Change  Column Row Layer    Maximum-Flux-Residual          L2-NORM 
          0                 1           2             4    7     1       0.7774845778E-02       4    7    1         0.4065995172E+00      0.1165966931E+01
          0                 2           2             4    7     1      -0.7562821311E-03       4    7    1        -0.4066005304E-01      0.1165721504E+00
          0                 3           2             4    7     1      -0.2295673455E-01       5    6    1        -0.1233554096E+01      0.3035097961E+01
          0                 4           2             4    7     1       0.2394739843E-01       5    6    1         0.1322036626E+01      0.3238320807E+01
          0                 5           2             4    7     1      -0.9531304601E-03       5    8    1        -0.5408557772E-01      0.1324811467E+00
          0                 6           1             4    7     1       0.1176803537E-04       5    8    1         0.6863353033E-03      0.1681152272E-02

    ------------------------------------------------
       NWT REQUIRED            6 OUTER ITERATIONS 
       AND A TOTAL OF         11 INNER ITERATIONS.
    ------------------------------------------------

 NO OUTPUT CONTROL FOR STRESS PERIOD   18   TIME STEP    9
 
 SOLVING FOR HEAD 
                                                   Max.-Head-Change                         Max.-Flux-Residual
  Residual-Control   Outer-Iter.   Inner-Iter.     Column Row Layer    Maximum-Head-Change  Column Row Layer    Maximum-Flux-Residual          L2-NORM 
          0                 1           2             4    7     1       0.7724747951E-02       4    7    1         0.4039714126E+00      0.1161561507E+01
          0                 2           2             4    7     1      -0.7514086872E-03       4    7    1        -0.4039722674E-01      0.1161247434E+00
          0                 3           2             4    7     1      -0.2296402543E-01       5    6    1        -0.1233940262E+01      0.3036060751E+01
          0                 4           2             4    7     1       0.2395465544E-01       5    6    1         0.1322437144E+01      0.3239302321E+01
          0                 5           2             4    7     1      -0.9534192976E-03       5    8    1        -0.5410196505E-01      0.1325213076E+00
          0                 6           1             4    7     1       0.1177159938E-04       5    8    1         0.6865431310E-03      0.1681659537E-02

    ------------------------------------------------
       NWT REQUIRED            6 OUTER ITERATIONS 
       AND A TOTAL OF         11 INNER ITERATIONS.
    ------------------------------------------------

 NO OUTPUT CONTROL FOR STRESS PERIOD   18   TIME STEP   10
 
 SOLVING FOR HEAD 
                                                   Max.-Head-Change                         Max.-Flux-Residual
  Residual-Control   Outer-Iter.   Inner-Iter.     Column Row Layer    Maximum-Head-Change  Column Row Layer    Maximum-Flux-Residual          L2-NORM 
          0                 1           2             4    7     1       0.7675098658E-02       4    7    1         0.4013665533E+00      0.1157241343E+01
          0                 2           2             4    7     1      -0.7465794271E-03       4    7    1        -0.4013675470E-01      0.1156858472E+00
          0                 3           2             4    7     1      -0.2297080657E-01       5    6    1        -0.1234299036E+01      0.3036955715E+01
          0                 4           2             4    7     1       0.2396138542E-01       5    6    1         0.1322808564E+01      0.3240212560E+01
          0                 5           2             4    7     1      -0.9536871586E-03       5    8    1        -0.5411716197E-01      0.1325585431E+00
          0                 6           1             4    7     1       0.1177490475E-04       5    8    1         0.6867358566E-03      0.1682132561E-02

    ------------------------------------------------
       NWT REQUIRED            6 OUTER ITERATIONS 
       AND A TOTAL OF         11 INNER ITERATIONS.
    ------------------------------------------------

 NO OUTPUT CONTROL FOR STRESS PERIOD   18   TIME STEP   11
 
 SOLVING FOR HEAD 
                                                   Max.-Head-Change                         Max.-Flux-Residual
  Residual-Control   Outer-Iter.   Inner-Iter.     Column Row Layer    Maximum-Head-Change  Column Row Layer    Maximum-Flux-Residual          L2-NORM 
          0                 1           2             4    7     1       0.7626024240E-02       4    7    1         0.3987922870E+00      0.1152977728E+01
          0                 2           2             4    7     1      -0.7418058105E-03       4    7    1        -0.3987932714E-01      0.1152522513E+00
          0                 3           2             4    7     1      -0.2297712908E-01       5    6    1        -0.1234633213E+01      0.3037789733E+01
          0                 4           2             4    7     1       0.2396764152E-01       5    6    1         0.1323153825E+01      0.3241058705E+01
          0                 5           2             4    7     1      -0.9539361584E-03       5    8    1        -0.5413128877E-01      0.1325931606E+00
          0                 6           1             4    7     1       0.1177797723E-04       5    8    1         0.6869150225E-03      0.1682578230E-02

    ------------------------------------------------
       NWT REQUIRED            6 OUTER ITERATIONS 
       AND A TOTAL OF         11 INNER ITERATIONS.
    ------------------------------------------------

 NO OUTPUT CONTROL FOR STRESS PERIOD   18   TIME STEP   12
 
 SOLVING FOR HEAD 
                                                   Max.-Head-Change                         Max.-Flux-Residual
  Residual-Control   Outer-Iter.   Inner-Iter.     Column Row Layer    Maximum-Head-Change  Column Row Layer    Maximum-Flux-Residual          L2-NORM 
          0                 1           2             4    7     1       0.7577245871E-02       4    7    1         0.3962331528E+00      0.1148754707E+01
          0                 2           2             4    7     1      -0.7370609912E-03       4    7    1        -0.3962341276E-01      0.1148228183E+00
          0                 3           2             4    7     1      -0.2298304560E-01       5    6    1        -0.1234945640E+01      0.3038569804E+01
          0                 4           2             4    7     1       0.2397347841E-01       5    6    1         0.1323475947E+01      0.3241848180E+01
          0                 5           2             4    7     1      -0.9541698742E-03       5    8    1        -0.5414454819E-01      0.1326256544E+00
          0                 6           1             4    7     1       0.1178086097E-04       5    8    1         0.6870831903E-03      0.1682983205E-02

    ------------------------------------------------
       NWT REQUIRED            6 OUTER ITERATIONS 
       AND A TOTAL OF         11 INNER ITERATIONS.
    ------------------------------------------------

 NO OUTPUT CONTROL FOR STRESS PERIOD   18   TIME STEP   13
 
 SOLVING FOR HEAD 
                                                   Max.-Head-Change                         Max.-Flux-Residual
  Residual-Control   Outer-Iter.   Inner-Iter.     Column Row Layer    Maximum-Head-Change  Column Row Layer    Maximum-Flux-Residual          L2-NORM 
          0                 1           2             4    7     1       0.7529034397E-02       4    7    1         0.3937040429E+00      0.1144566264E+01
          0                 2           2             4    7     1      -0.7323713162E-03       4    7    1        -0.3937050088E-01      0.1143970690E+00
          0                 3           2             4    7     1      -0.2298859203E-01       5    6    1        -0.1235238168E+01      0.3039300389E+01
          0                 4           2             4    7     1       0.2397893096E-01       5    6    1         0.1323776846E+01      0.3242585670E+01
          0                 5           2             4    7     1      -0.9543854917E-03       5    8    1        -0.5415678062E-01      0.1326556240E+00
          0                 6           1             4    7     1       0.1178352179E-04       5    8    1         0.6872383224E-03      0.1683365978E-02

    ------------------------------------------------
       NWT REQUIRED            6 OUTER ITERATIONS 
       AND A TOTAL OF         11 INNER ITERATIONS.
    ------------------------------------------------

 NO OUTPUT CONTROL FOR STRESS PERIOD   18   TIME STEP   14
 
 SOLVING FOR HEAD 
                                                   Max.-Head-Change                         Max.-Flux-Residual
  Residual-Control   Outer-Iter.   Inner-Iter.     Column Row Layer    Maximum-Head-Change  Column Row Layer    Maximum-Flux-Residual          L2-NORM 
          0                 1           2             4    7     1       0.7481244506E-02       4    7    1         0.3911969883E+00      0.1140399431E+01
          0                 2           2             4    7     1      -0.7277223732E-03       4    7    1        -0.3911977968E-01      0.1139726747E+00
          0                 3           2             4    7     1      -0.2299380739E-01       5    6    1        -0.1235512963E+01      0.3039987323E+01
          0                 4           2             4    7     1       0.2398404283E-01       5    6    1         0.1324058941E+01      0.3243277089E+01
          0                 5           2             4    7     1      -0.9545889501E-03       5    8    1        -0.5416832317E-01      0.1326839180E+00
          0                 6           1             4    7     1       0.1178603229E-04       5    8    1         0.6873847296E-03      0.1683722881E-02

    ------------------------------------------------
       NWT REQUIRED            6 OUTER ITERATIONS 
       AND A TOTAL OF         11 INNER ITERATIONS.
    ------------------------------------------------

 NO OUTPUT CONTROL FOR STRESS PERIOD   18   TIME STEP   15
 
 SOLVING FOR HEAD 
                                                   Max.-Head-Change                         Max.-Flux-Residual
  Residual-Control   Outer-Iter.   Inner-Iter.     Column Row Layer    Maximum-Head-Change  Column Row Layer    Maximum-Flux-Residual          L2-NORM 
          0                 1           2             4    7     1       0.7434010800E-02       4    7    1         0.3887191300E+00      0.1136255904E+01
          0                 2           2             4    7     1      -0.7231280847E-03       4    7    1        -0.3887200783E-01      0.1135518902E+00
          0                 3           2             4    7     1      -0.2299871430E-01       5    6    1        -0.1235771289E+01      0.3040633124E+01
          0                 4           2             4    7     1       0.2398883790E-01       5    6    1         0.1324323551E+01      0.3243925672E+01
          0                 5           2             4    7     1      -0.9547769982E-03       5    8    1        -0.5417899123E-01      0.1327100590E+00
          0                 6           1             4    7     1       0.1178562702E-04       5    8    1         0.6873610673E-03      0.1683665490E-02

    ------------------------------------------------
       NWT REQUIRED            6 OUTER ITERATIONS 
       AND A TOTAL OF         11 INNER ITERATIONS.
    ------------------------------------------------

 NO OUTPUT CONTROL FOR STRESS PERIOD   18   TIME STEP   16
 
 SOLVING FOR HEAD 
                                                   Max.-Head-Change                         Max.-Flux-Residual
  Residual-Control   Outer-Iter.   Inner-Iter.     Column Row Layer    Maximum-Head-Change  Column Row Layer    Maximum-Flux-Residual          L2-NORM 
          0                 1           2             4    7     1       0.7387048124E-02       4    7    1         0.3862554337E+00      0.1132118498E+01
          0                 2           2             4    7     1      -0.7185598845E-03       4    7    1        -0.3862563734E-01      0.1131313894E+00
          0                 3           2             4    7     1      -0.2300334665E-01       5    6    1        -0.1236014807E+01      0.3041242261E+01
          0                 4           2             4    7     1       0.2399334868E-01       5    6    1         0.1324572462E+01      0.3244535797E+01
          0                 5           2             4    7     1      -0.9549593338E-03       5    8    1        -0.5418933488E-01      0.1327354035E+00
          0                 6           1             4    7     1       0.1179060276E-04       5    8    1         0.6876512039E-03      0.1684376370E-02

    ------------------------------------------------
       NWT REQUIRED            6 OUTER ITERATIONS 
       AND A TOTAL OF         11 INNER ITERATIONS.
    ------------------------------------------------

 NO OUTPUT CONTROL FOR STRESS PERIOD   18   TIME STEP   17
 
 SOLVING FOR HEAD 
                                                   Max.-Head-Change                         Max.-Flux-Residual
  Residual-Control   Outer-Iter.   Inner-Iter.     Column Row Layer    Maximum-Head-Change  Column Row Layer    Maximum-Flux-Residual          L2-NORM 
          0                 1           2             4    7     1       0.7340631365E-02       4    7    1         0.3838204654E+00      0.1127985274E+01
          0                 2           2             4    7     1      -0.7140445101E-03       4    7    1        -0.3838212480E-01      0.1127113240E+00
          0                 3           2             4    7     1      -0.2300772922E-01       5    6    1        -0.1236245009E+01      0.3041818410E+01
          0                 4           2             4    7     1       0.2399760279E-01       5    6    1         0.1324807208E+01      0.3245111225E+01
          0                 5           2             4    7     1      -0.9551286524E-03       5    8    1        -0.5419894010E-01      0.1327589479E+00
          0                 6           1             4    7     1       0.1179269186E-04       5    8    1         0.6877730198E-03      0.1684673754E-02

    ------------------------------------------------
       NWT REQUIRED            6 OUTER ITERATIONS 
       AND A TOTAL OF         11 INNER ITERATIONS.
    ------------------------------------------------

 NO OUTPUT CONTROL FOR STRESS PERIOD   18   TIME STEP   18
 
 SOLVING FOR HEAD 
                                                   Max.-Head-Change                         Max.-Flux-Residual
  Residual-Control   Outer-Iter.   Inner-Iter.     Column Row Layer    Maximum-Head-Change  Column Row Layer    Maximum-Flux-Residual          L2-NORM 
          0                 1           2             4    7     1       0.7294747843E-02       4    7    1         0.3814138026E+00      0.1123859886E+01
          0                 2           2             4    7     1      -0.7095810057E-03       4    7    1        -0.3814144284E-01      0.1122925474E+00
          0                 3           2             4    7     1      -0.2301187734E-01       5    6    1        -0.1236462657E+01      0.3042363268E+01
          0                 4           2             4    7     1       0.2400161639E-01       5    6    1         0.1325028678E+01      0.3245654124E+01
          0                 5           2             4    7     1      -0.9552883986E-03       5    8    1        -0.5420800230E-01      0.1327811532E+00
          0                 6           1             4    7     1       0.1179466345E-04       5    8    1         0.6878879431E-03      0.1684954763E-02

    ------------------------------------------------
       NWT REQUIRED            6 OUTER ITERATIONS 
       AND A TOTAL OF         11 INNER ITERATIONS.
    ------------------------------------------------

 NO OUTPUT CONTROL FOR STRESS PERIOD   18   TIME STEP   19
 
 SOLVING FOR HEAD 
                                                   Max.-Head-Change                         Max.-Flux-Residual
  Residual-Control   Outer-Iter.   Inner-Iter.     Column Row Layer    Maximum-Head-Change  Column Row Layer    Maximum-Flux-Residual          L2-NORM 
          0                 1           2             4    7     1       0.7249118902E-02       4    7    1         0.3790201111E+00      0.1119739663E+01
          0                 2           2             4    7     1      -0.7051430949E-03       4    7    1        -0.3790210258E-01      0.1118742082E+00
          0                 3           2             4    7     1      -0.2301581198E-01       5    6    1        -0.1236668781E+01      0.3042879614E+01
          0                 4           2             4    7     1       0.2400541034E-01       5    6    1         0.1325238016E+01      0.3246167310E+01
          0                 5           2             4    7     1      -0.9554394016E-03       5    8    1        -0.5421656815E-01      0.1328021522E+00
          0                 6           1             4    7     1       0.1179652627E-04       5    8    1         0.6879965804E-03      0.1685225013E-02

    ------------------------------------------------
       NWT REQUIRED            6 OUTER ITERATIONS 
       AND A TOTAL OF         11 INNER ITERATIONS.
    ------------------------------------------------

 NO OUTPUT CONTROL FOR STRESS PERIOD   18   TIME STEP   20
 
 SOLVING FOR HEAD 
                                                   Max.-Head-Change                         Max.-Flux-Residual
  Residual-Control   Outer-Iter.   Inner-Iter.     Column Row Layer    Maximum-Head-Change  Column Row Layer    Maximum-Flux-Residual          L2-NORM 
          0                 1           2             4    7     1       0.7204020694E-02       4    7    1         0.3766542956E+00      0.1115621994E+01
          0                 2           2             4    7     1      -0.7007562570E-03       4    7    1        -0.3766552022E-01      0.1114560884E+00
          0                 3           2             4    7     1      -0.2301955052E-01       5    6    1        -0.1236864475E+01      0.3043370262E+01
          0                 4           2             4    7     1       0.2400900309E-01       5    6    1         0.1325436252E+01      0.3246653296E+01
          0                 5           2             4    7     1      -0.9555823977E-03       5    8    1        -0.5422467978E-01      0.1328220405E+00
          0                 6           1             4    7     1       0.1179829108E-04       5    8    1         0.6880994497E-03      0.1685481278E-02

    ------------------------------------------------
       NWT REQUIRED            6 OUTER ITERATIONS 
       AND A TOTAL OF         11 INNER ITERATIONS.
    ------------------------------------------------

 NO OUTPUT CONTROL FOR STRESS PERIOD   18   TIME STEP   21
 
 SOLVING FOR HEAD 
                                                   Max.-Head-Change                         Max.-Flux-Residual
  Residual-Control   Outer-Iter.   Inner-Iter.     Column Row Layer    Maximum-Head-Change  Column Row Layer    Maximum-Flux-Residual          L2-NORM 
          0                 1           2             4    7     1       0.7159439347E-02       4    7    1         0.3743159981E+00      0.1111507272E+01
          0                 2           2             4    7     1      -0.6964196959E-03       4    7    1        -0.3743168969E-01      0.1110392312E+00
          0                 3           2             4    7     1      -0.2302311244E-01       5    6    1        -0.1237050781E+01      0.3043837137E+01
          0                 4           2             4    7     1       0.2401241542E-01       5    6    1         0.1325624533E+01      0.3247114901E+01
          0                 5           2             4    7     1      -0.9557154110E-03       5    8    1        -0.5423222499E-01      0.1328405293E+00
          0                 6           1             4    7     1       0.1179720688E-04       5    8    1         0.6880361925E-03      0.1685322575E-02

    ------------------------------------------------
       NWT REQUIRED            6 OUTER ITERATIONS 
       AND A TOTAL OF         11 INNER ITERATIONS.
    ------------------------------------------------

 NO OUTPUT CONTROL FOR STRESS PERIOD   18   TIME STEP   22
 
 SOLVING FOR HEAD 
                                                   Max.-Head-Change                         Max.-Flux-Residual
  Residual-Control   Outer-Iter.   Inner-Iter.     Column Row Layer    Maximum-Head-Change  Column Row Layer    Maximum-Flux-Residual          L2-NORM 
          0                 1           2             4    7     1       0.7115094646E-02       4    7    1         0.3719898223E+00      0.1107393315E+01
          0                 2           2             4    7     1      -0.6921061540E-03       4    7    1        -0.3719907132E-01      0.1106228962E+00
          0                 3           2             4    7     1      -0.2302650628E-01       5    6    1        -0.1237228001E+01      0.3044281411E+01
          0                 4           2             4    7     1       0.2401565437E-01       5    6    1         0.1325803237E+01      0.3247553034E+01
          0                 5           2             4    7     1      -0.9558471262E-03       5    8    1        -0.5423969629E-01      0.1328588421E+00
          0                 6           1             4    7     1       0.1180155747E-04       5    8    1         0.6882899065E-03      0.1685940413E-02

    ------------------------------------------------
       NWT REQUIRED            6 OUTER ITERATIONS 
       AND A TOTAL OF         11 INNER ITERATIONS.
    ------------------------------------------------

 NO OUTPUT CONTROL FOR STRESS PERIOD   18   TIME STEP   23
 
 SOLVING FOR HEAD 
                                                   Max.-Head-Change                         Max.-Flux-Residual
  Residual-Control   Outer-Iter.   Inner-Iter.     Column Row Layer    Maximum-Head-Change  Column Row Layer    Maximum-Flux-Residual          L2-NORM 
          0                 1           2             4    7     1       0.7071261217E-02       4    7    1         0.3696905933E+00      0.1103285802E+01
          0                 2           2             4    7     1      -0.6878423455E-03       4    7    1        -0.3696914767E-01      0.1102066182E+00
          0                 3           2             4    7     1      -0.2302974573E-01       5    6    1        -0.1237396973E+01      0.3044705742E+01
          0                 4           2             4    7     1       0.2401873600E-01       5    6    1         0.1325973258E+01      0.3247969904E+01
          0                 5           2             4    7     1      -0.9559697786E-03       5    8    1        -0.5424665353E-01      0.1328759004E+00
          0                 6           1             4    7     1       0.1180307091E-04       5    8    1         0.6883781398E-03      0.1686159747E-02

    ------------------------------------------------
       NWT REQUIRED            6 OUTER ITERATIONS 
       AND A TOTAL OF         11 INNER ITERATIONS.
    ------------------------------------------------

 NO OUTPUT CONTROL FOR STRESS PERIOD   18   TIME STEP   24
 
 SOLVING FOR HEAD 
                                                   Max.-Head-Change                         Max.-Flux-Residual
  Residual-Control   Outer-Iter.   Inner-Iter.     Column Row Layer    Maximum-Head-Change  Column Row Layer    Maximum-Flux-Residual          L2-NORM 
          0                 1           2             4    7     1       0.7027796505E-02       4    7    1         0.3674105344E+00      0.1099183387E+01
          0                 2           2             4    7     1      -0.6836144030E-03       4    7    1        -0.3674114103E-01      0.1097906796E+00
          0                 3           2             4    7     1      -0.2303284286E-01       5    6    1        -0.1237558353E+01      0.3045110911E+01
          0                 4           2             4    7     1       0.2402167192E-01       5    6    1         0.1326135236E+01      0.3248367056E+01
          0                 5           2             4    7     1      -0.9560866319E-03       5    8    1        -0.5425328174E-01      0.1328921588E+00
          0                 6           1             4    7     1       0.1180451312E-04       5    8    1         0.6884621907E-03      0.1686385033E-02

    ------------------------------------------------
       NWT REQUIRED            6 OUTER ITERATIONS 
       AND A TOTAL OF         11 INNER ITERATIONS.
    ------------------------------------------------

 NO OUTPUT CONTROL FOR STRESS PERIOD   18   TIME STEP   25
 
 SOLVING FOR HEAD 
                                                   Max.-Head-Change                         Max.-Flux-Residual
  Residual-Control   Outer-Iter.   Inner-Iter.     Column Row Layer    Maximum-Head-Change  Column Row Layer    Maximum-Flux-Residual          L2-NORM 
          0                 1           2             4    7     1       0.6984827658E-02       4    7    1         0.3651569319E+00      0.1095082143E+01
          0                 2           2             4    7     1      -0.6794346951E-03       4    7    1        -0.3651578006E-01      0.1093759145E+00
          0                 3           2             4    7     1      -0.2303580347E-01       5    6    1        -0.1237712442E+01      0.3045497839E+01
          0                 4           2             4    7     1       0.2402446902E-01       5    6    1         0.1326289552E+01      0.3248745448E+01
          0                 5           2             4    7     1      -0.9561979599E-03       5    8    1        -0.5425959645E-01      0.1329076330E+00
          0                 6           1             4    7     1       0.1180588688E-04       5    8    1         0.6885422526E-03      0.1686662730E-02

    ------------------------------------------------
       NWT REQUIRED            6 OUTER ITERATIONS 
       AND A TOTAL OF         11 INNER ITERATIONS.
    ------------------------------------------------

 NO OUTPUT CONTROL FOR STRESS PERIOD   18   TIME STEP   26
 
 SOLVING FOR HEAD 
                                                   Max.-Head-Change                         Max.-Flux-Residual
  Residual-Control   Outer-Iter.   Inner-Iter.     Column Row Layer    Maximum-Head-Change  Column Row Layer    Maximum-Flux-Residual          L2-NORM 
          0                 1           2             4    7     1       0.6942214923E-02       4    7    1         0.3629217005E+00      0.1090992768E+01
          0                 2           2             4    7     1      -0.6752896271E-03       4    7    1        -0.3629225618E-01      0.1089630898E+00
          0                 3           2             4    7     1      -0.2303864180E-01       5    6    1        -0.1237860018E+01      0.3045868524E+01
          0                 4           2             4    7     1       0.2402714121E-01       5    6    1         0.1326436975E+01      0.3249106941E+01
          0                 5           2             4    7     1      -0.9563043160E-03       5    8    1        -0.5426562895E-01      0.1329224160E+00
          0                 6           1             4    7     1       0.1180719915E-04       5    8    1         0.6886187793E-03      0.1686747827E-02

    ------------------------------------------------
       NWT REQUIRED            6 OUTER ITERATIONS 
       AND A TOTAL OF         11 INNER ITERATIONS.
    ------------------------------------------------

 NO OUTPUT CONTROL FOR STRESS PERIOD   18   TIME STEP   27
 
 SOLVING FOR HEAD 
                                                   Max.-Head-Change                         Max.-Flux-Residual
  Residual-Control   Outer-Iter.   Inner-Iter.     Column Row Layer    Maximum-Head-Change  Column Row Layer    Maximum-Flux-Residual          L2-NORM 
          0                 1           2             4    7     1       0.6900085687E-02       4    7    1         0.3607122721E+00      0.1086908764E+01
          0                 2           2             4    7     1      -0.6711915905E-03       4    7    1        -0.3607131264E-01      0.1085499026E+00
          0                 3           2             4    7     1      -0.2304136146E-01       5    6    1        -0.1238001260E+01      0.3046223677E+01
          0                 4           2             4    7     1       0.2402969306E-01       5    6    1         0.1326577755E+01      0.3249452181E+01
          0                 5           2             4    7     1      -0.9564030816E-03       5    8    1        -0.5427123093E-01      0.1329361512E+00
          0                 6           1             4    7     1       0.1180569253E-04       5    8    1         0.6885308912E-03      0.1686533015E-02

    ------------------------------------------------
       NWT REQUIRED            6 OUTER ITERATIONS 
       AND A TOTAL OF         11 INNER ITERATIONS.
    ------------------------------------------------

 NO OUTPUT CONTROL FOR STRESS PERIOD   18   TIME STEP   28
 
 SOLVING FOR HEAD 
                                                   Max.-Head-Change                         Max.-Flux-Residual
  Residual-Control   Outer-Iter.   Inner-Iter.     Column Row Layer    Maximum-Head-Change  Column Row Layer    Maximum-Flux-Residual          L2-NORM 
          0                 1           2             4    7     1       0.6858164091E-02       4    7    1         0.3585132343E+00      0.1082830154E+01
          0                 2           2             4    7     1      -0.6671137516E-03       4    7    1        -0.3585140813E-01      0.1081374755E+00
          0                 3           2             4    7     1      -0.2304397539E-01       5    6    1        -0.1238136769E+01      0.3046564696E+01
          0                 4           2             4    7     1       0.2403213625E-01       5    6    1         0.1326712531E+01      0.3249782692E+01
          0                 5           2             4    7     1      -0.9565031245E-03       5    8    1        -0.5427690513E-01      0.1329500541E+00
          0                 6           1             4    7     1       0.1180965241E-04       5    8    1         0.6887617919E-03      0.1687102486E-02

    ------------------------------------------------
       NWT REQUIRED            6 OUTER ITERATIONS 
       AND A TOTAL OF         11 INNER ITERATIONS.
    ------------------------------------------------

 NO OUTPUT CONTROL FOR STRESS PERIOD   18   TIME STEP   29
 
 SOLVING FOR HEAD 
                                                   Max.-Head-Change                         Max.-Flux-Residual
  Residual-Control   Outer-Iter.   Inner-Iter.     Column Row Layer    Maximum-Head-Change  Column Row Layer    Maximum-Flux-Residual          L2-NORM 
          0                 1           2             4    7     1       0.6816722004E-02       4    7    1         0.3563396407E+00      0.1078769899E+01
          0                 2           2             4    7     1      -0.6630822800E-03       4    7    1        -0.3563403325E-01      0.1077269115E+00
          0                 3           2             4    7     1      -0.2304648650E-01       5    6    1        -0.1238266861E+01      0.3046892174E+01
          0                 4           2             4    7     1       0.2403447529E-01       5    6    1         0.1326841563E+01      0.3250099140E+01
          0                 5           2             4    7     1      -0.9565934198E-03       5    8    1        -0.5428202642E-01      0.1329626121E+00
          0                 6           1             4    7     1       0.1180804117E-04       5    8    1         0.6886678075E-03      0.1686866750E-02

    ------------------------------------------------
       NWT REQUIRED            6 OUTER ITERATIONS 
       AND A TOTAL OF         11 INNER ITERATIONS.
    ------------------------------------------------

 NO OUTPUT CONTROL FOR STRESS PERIOD   18   TIME STEP   30



 STREAM LISTING     PERIOD     18   STEP       30

 LAYER ROW COL. STREAM  RCH.  FLOW INTO     FLOW TO   FLOW OUT OF   OVRLND.     DIRECT     STREAM       STREAM     STREAM     STREAM   STREAMBED  STREAMBED
                SEG.NO.  NO.  STRM. RCH.    AQUIFER    STRM. RCH.    RUNOFF     PRECIP       ET          HEAD       DEPTH      WIDTH   CONDCTNC.   GRADIENT

   1    1    1     1     1    2.3625E+01  2.3872E-01   2.3387E+01  0.000E+00  0.000E+00  0.000E+00  1.09421E+03  1.157E+00  1.276E+01  5.742E-02  1.386E+00
   1    2    2     1     2    2.3387E+01  3.6909E-01   2.3018E+01  0.000E+00  0.000E+00  0.000E+00  1.08921E+03  1.153E+00  1.270E+01  8.888E-02  1.384E+00
   1    3    3     1     3    2.3018E+01  3.1418E-01   2.2703E+01  0.000E+00  0.000E+00  0.000E+00  1.08357E+03  1.147E+00  1.263E+01  7.575E-02  1.382E+00
   1    3    4     1     4    2.2703E+01  2.8882E-01   2.2415E+01  0.000E+00  0.000E+00  0.000E+00  1.07855E+03  1.143E+00  1.256E+01  6.972E-02  1.381E+00
   1    4    5     2     1    2.0415E+01  3.1702E-01   2.0098E+01  0.000E+00  0.000E+00  0.000E+00  1.07300E+03  1.064E+00  1.200E+01  7.800E-02  1.355E+00
   1    5    6     2     2    2.0098E+01  2.4333E-01   1.9854E+01  0.000E+00  0.000E+00  0.000E+00  1.06756E+03  1.055E+00  1.200E+01  6.000E-02  1.352E+00
   1    6    6     2     3    1.9854E+01  2.4286E-01   1.9611E+01  0.000E+00  0.000E+00  0.000E+00  1.06284E+03  1.048E+00  1.200E+01  6.000E-02  1.349E+00
   1    7    6     2     4    1.9611E+01  2.4240E-01   1.9369E+01  0.000E+00  0.000E+00  0.000E+00  1.05812E+03  1.040E+00  1.200E+01  6.000E-02  1.347E+00
   1    8    6     2     5    1.9369E+01  2.4193E-01   1.9127E+01  0.000E+00  0.000E+00  0.000E+00  1.05339E+03  1.032E+00  1.200E+01  6.000E-02  1.344E+00
   1    3    5     3     1    2.0000E+00  2.8252E-01   1.7175E+00  0.000E+00  0.000E+00  0.000E+00  1.07555E+03  1.909E+00  9.636E+00  7.227E-02  1.955E+00
   1    3    6     3     2    1.7175E+00  2.4905E-01   1.4684E+00  0.000E+00  0.000E+00  0.000E+00  1.07264E+03  1.727E+00  8.909E+00  6.682E-02  1.864E+00
   1    3    7     3     3    1.4684E+00  1.9718E-01   1.2712E+00  0.000E+00  0.000E+00  0.000E+00  1.06987E+03  1.555E+00  8.218E+00  5.547E-02  1.777E+00
   1    4    8     3     4    1.2712E+00  2.2567E-01   1.0456E+00  0.000E+00  0.000E+00  0.000E+00  1.06682E+03  1.364E+00  7.455E+00  6.709E-02  1.682E+00
   1    5    8     3     5    1.0456E+00  1.5790E-01   8.8768E-01  0.000E+00  0.000E+00  0.000E+00  1.06362E+03  1.164E+00  6.655E+00  4.991E-02  1.582E+00
   1    6    8     3     6    8.8768E-01  5.5980E-02   8.3170E-01  0.000E+00  0.000E+00  0.000E+00  1.06158E+03  1.036E+00  6.145E+00  1.844E-02  1.518E+00
   1    5   10     4     1    1.0000E+01  9.0919E-02   9.9091E+00  0.000E+00  0.000E+00  0.000E+00  1.07836E+03  6.368E-01  1.000E+01  2.500E-02  1.212E+00
   1    5    9     4     2    9.9091E+00  1.8158E-01   9.7275E+00  0.000E+00  0.000E+00  0.000E+00  1.07154E+03  6.315E-01  1.000E+01  5.000E-02  1.211E+00
   1    6    8     4     3    9.7275E+00  1.2689E-01   9.6006E+00  0.000E+00  0.000E+00  0.000E+00  1.06381E+03  6.256E-01  1.000E+01  3.500E-02  1.209E+00
   1    6    8     5     1    1.0432E+01  2.2686E-01   1.0205E+01  0.000E+00  0.000E+00  0.000E+00  1.05868E+03  6.790E-01  1.542E+01  6.166E-02  1.226E+00
   1    7    7     5     2    1.0205E+01  2.7894E-01   9.9265E+00  0.000E+00  0.000E+00  0.000E+00  1.05417E+03  6.732E-01  1.519E+01  7.594E-02  1.224E+00
   1    8    7     5     3    9.9265E+00  1.9221E-01   9.7343E+00  0.000E+00  0.000E+00  0.000E+00  1.04992E+03  6.676E-01  1.497E+01  5.241E-02  1.223E+00
   1    8    6     5     4    9.7343E+00  1.3577E-01   9.5985E+00  0.000E+00  0.000E+00  0.000E+00  1.04691E+03  6.637E-01  1.482E+01  3.706E-02  1.221E+00
   1    9    6     6     1    2.1285E+01  2.4629E-01   2.1038E+01  0.000E+00  0.000E+00  0.000E+00  1.04383E+03  1.105E+00  1.200E+01  6.000E-02  1.368E+00
   1   10    7     6     2    2.1038E+01  2.4583E-01   2.0793E+01  0.000E+00  0.000E+00  0.000E+00  1.03928E+03  1.097E+00  1.200E+01  6.000E-02  1.366E+00
   1   11    7     6     3    2.0793E+01  2.4536E-01   2.0547E+01  0.000E+00  0.000E+00  0.000E+00  1.03473E+03  1.089E+00  1.200E+01  6.000E-02  1.363E+00
   1   12    7     6     4    2.0547E+01  2.4490E-01   2.0302E+01  0.000E+00  0.000E+00  0.000E+00  1.03017E+03  1.082E+00  1.200E+01  6.000E-02  1.361E+00
   1   13    7     6     5    2.0302E+01  6.4023E-03   2.0296E+01  0.000E+00  0.000E+00  0.000E+00  1.02699E+03  1.078E+00  1.200E+01  2.400E-02  8.892E-02
   1   14    9     7     1    1.5000E+02  1.3726E+00   1.4863E+02  0.000E+00  0.000E+00  0.000E+00  1.03987E+03  2.288E+00  5.529E+01  5.593E-01  8.181E-01
   1   13    8     7     2    1.4863E+02  1.9467E+00   1.4668E+02  0.000E+00  0.000E+00  0.000E+00  1.03478E+03  2.279E+00  5.525E+01  6.147E-01  1.056E+00
   1   13    7     7     3    1.4668E+02  1.6576E+00   1.4502E+02  0.000E+00  0.000E+00  0.000E+00  1.02969E+03  2.269E+00  5.521E+01  5.584E-01  9.895E-01
   1   13    6     8     1    1.6532E+02  1.0767E+00   1.6424E+02  0.000E+00  0.000E+00  0.000E+00  1.02479E+03  2.918E+00  4.231E+01  4.311E-01  8.324E-01
   1   13    5     8     2    1.6424E+02  3.2119E-01   1.6392E+02  0.000E+00  0.000E+00  0.000E+00  1.01854E+03  2.913E+00  4.224E+01  4.305E-01  2.487E-01
   1   13    4     8     3    1.6392E+02 -1.9467E+00   1.6587E+02  0.000E+00  0.000E+00  0.000E+00  1.01229E+03  2.919E+00  4.232E+01  4.313E+00 -1.505E-01
   1   13    3     8     4    1.6587E+02 -3.4182E+00   1.6929E+02  0.000E+00  0.000E+00  0.000E+00  1.00606E+03  2.936E+00  4.258E+01  4.339E+00 -2.626E-01
   1   13    2     8     5    1.6929E+02 -2.5373E+00   1.7182E+02  0.000E+00  0.000E+00  0.000E+00  9.99831E+02  2.956E+00  4.286E+01  4.368E+00 -1.937E-01
   1   13    1     8     6    1.7182E+02 -1.9904E+00   1.7381E+02  0.000E+00  0.000E+00  0.000E+00  9.94845E+02  2.970E+00  4.307E+01  2.633E+00 -2.519E-01
   1    8    6     9     1    7.4409E+00  0.0000E+00   7.4409E+00  0.000E+00  0.000E+00  0.000E+00  1.08065E+03  1.898E+00  4.000E+00  0.000E+00  1.633E+00
   1    8    5     9     2    7.4409E+00  0.0000E+00   7.4409E+00  0.000E+00  0.000E+00  0.000E+00  1.08015E+03  1.898E+00  4.000E+00  0.000E+00  1.633E+00





UNSATURATED ZONE PACKAGE VOLUMETRIC BUDGET FOR  TIME STEP    30 STRESS PERIOD   18
  ------------------------------------------------------------------------------



     CUMULATIVE VOLUMES      L**3       RATES FOR THIS TIME STEP      L**3/T
     ------------------                 ------------------------

           IN:                                      IN:
           ---                                      ---
        INFILTRATION =   712204256.5060          INFILTRATION =           8.2886

          OUT:                                     OUT:
          ----                                     ----
              UZF ET =   472699714.4415                UZF ET =           8.3175
        UZF RECHARGE =       73224.0000          UZF RECHARGE =       0.0000E+00

            IN - OUT =   239431318.0645              IN - OUT =      -2.8945E-02

          STORAGE:                                 STORAGE:
          --------                                 --------
      STORAGE CHANGE =   239431665.1493        STORAGE CHANGE =      -2.8945E-02

 PERCENT DISCREPANCY IS DIFFERENCE BETWEEN IN-OUT MINUS CHANGE IN STORAGE
 DIVIDED BY THE AVERAGE OF IN AND OUT TIMES 100

 PERCENT DISCREPANCY =          -0.00     PERCENT DISCREPANCY =           0.00






1
  VOLUMETRIC BUDGET FOR AGRICULTURAL FIELDS AT  END OF TIME STEP   30, STRESS PERIOD  18
  ------------------------------------------------------------------------------

     CUMULATIVE VOLUMES      L**3       RATES FOR THIS TIME STEP      L**3/T
     ------------------                 ------------------------

           IN:                                      IN:
           ---                                      ---
               AG WELLS  =   429841792.0000                 AG WELLS  =           0.0000
      DIVERSION SEGMENTS =   244453008.0000        DIVERSION SEGMENTS =           7.4409
       IRRIGATION PONDS  =           0.0000         IRRIGATION PONDS  =           0.0000
           GW IRRIGATION =           0.0000             GW IRRIGATION =           0.0000
           SW IRRIGATION =           0.0000             SW IRRIGATION =           0.0000
        SYSTEM LOSSES GW =           0.0000          SYSTEM LOSSES GW =           0.0000
        SYSTEM LOSSES SW =           0.0000          SYSTEM LOSSES SW =           0.0000

                TOTAL IN =   674294784.0000                  TOTAL IN =           7.4409

          OUT:                                     OUT:
          ----                                     ----
               AG WELLS  =           0.0000                 AG WELLS  =           0.0000
      DIVERSION SEGMENTS =           0.0000        DIVERSION SEGMENTS =           0.0000
       IRRIGATION PONDS  =           0.0000         IRRIGATION PONDS  =           0.0000
           GW IRRIGATION =   429841792.0000             GW IRRIGATION =           0.0000
           SW IRRIGATION =   244457792.0000             SW IRRIGATION =           7.4411
        SYSTEM LOSSES GW =           0.0000          SYSTEM LOSSES GW =           0.0000
        SYSTEM LOSSES SW =           0.0000          SYSTEM LOSSES SW =           0.0000

               TOTAL OUT =   674299584.0000                 TOTAL OUT =           7.4411

                IN - OUT =       -4800.0000                  IN - OUT =      -1.4877E-04

     PERCENT DISCREPANCY =          -0.00         PERCENT DISCREPANCY =          -0.00



1
  VOLUMETRIC BUDGET FOR ENTIRE MODEL AT END OF TIME STEP   30, STRESS PERIOD  18
  ------------------------------------------------------------------------------

     CUMULATIVE VOLUMES      L**3       RATES FOR THIS TIME STEP      L**3/T
     ------------------                 ------------------------

           IN:                                      IN:
           ---                                      ---
             STORAGE     =   719202496.0000               STORAGE     =           2.5314
       CONSTANT HEAD     =           0.0000         CONSTANT HEAD     =           0.0000
     HEAD DEP BOUNDS     =    12901270.0000       HEAD DEP BOUNDS     =           0.2883
      STREAM LEAKAGE     =   529134592.0000        STREAM LEAKAGE     =          12.2634
        UZF RECHARGE     =       73223.9531          UZF RECHARGE     =           0.0000
               GW ET     =           0.0000                 GW ET     =           0.0000
     SURFACE LEAKAGE     =           0.0000       SURFACE LEAKAGE     =           0.0000
           AG WELLS      =           0.0000             AG WELLS      =           0.0000

                TOTAL IN =  1261311488.0000                  TOTAL IN =          15.0831

          OUT:                                     OUT:
          ----                                     ----
             STORAGE     =   362815456.0000               STORAGE     =           4.9016
       CONSTANT HEAD     =           0.0000         CONSTANT HEAD     =           0.0000
     HEAD DEP BOUNDS     =    12910809.0000       HEAD DEP BOUNDS     =           0.2888
      STREAM LEAKAGE     =   455749152.0000        STREAM LEAKAGE     =           9.8926
        UZF RECHARGE     =           0.0000          UZF RECHARGE     =           0.0000
               GW ET     =           0.0000                 GW ET     =           0.0000
     SURFACE LEAKAGE     =           0.0000       SURFACE LEAKAGE     =           0.0000
           AG WELLS      =   429841792.0000             AG WELLS      =           0.0000

               TOTAL OUT =  1261317248.0000                 TOTAL OUT =          15.0830

                IN - OUT =       -5760.0000                  IN - OUT =       6.5804E-05

     PERCENT DISCREPANCY =          -0.00         PERCENT DISCREPANCY =           0.00






         TIME SUMMARY AT END OF TIME STEP   30 IN STRESS PERIOD   18
                    SECONDS     MINUTES      HOURS       DAYS        YEARS
                    -----------------------------------------------------------
   TIME STEP LENGTH  87667.      1461.1      24.352      1.0147     2.77799E-03
 STRESS PERIOD TIME 2.63000E+06  43833.      730.56      30.440     8.33397E-02
         TOTAL TIME 4.47965E+07 7.46608E+05  12443.      518.48      1.4195    
1
1
                            STRESS PERIOD NO.   19, LENGTH =   2630000.    
                            -----------------------------------------------

                              NUMBER OF TIME STEPS =    30

                               MULTIPLIER FOR DELT =     1.000

                            INITIAL TIME STEP SIZE =   87666.66    

 REUSING NON-PARAMETER GHB CELLS FROM LAST STRESS PERIOD

      2 GHB CELLS

 REUSING STREAM SEGMENT DATA FROM LAST STRESS PERIOD



            AREAL INFILTRATION RATE
 READING ON UNIT   19 WITH FORMAT: (FREE)              

            1           2           3           4           5           6           7           8           9          10
 ........................................................................................................................
   1   1.0000E-10  2.0000E-10   0.000       0.000       0.000       0.000       0.000       0.000       0.000       0.000    
   2   2.0000E-10  1.0000E-10  2.0000E-10   0.000       0.000      8.0000E-10  8.0000E-10  5.0000E-10   0.000       0.000    
   3    0.000      5.0000E-10  1.0000E-10  1.0000E-10  8.0000E-10  8.0000E-10  5.0000E-10  5.0000E-10   0.000       0.000    
   4   8.0000E-10  5.0000E-10  1.0000E-10  1.0000E-10  1.0000E-10  1.0000E-10  1.0000E-10  1.0000E-10  2.0000E-10   0.000    
   5   8.0000E-10  5.0000E-10  1.0000E-10  1.0000E-10  1.0000E-10  1.0000E-10  1.0000E-10  1.0000E-10  1.0000E-10  1.0000E-10
   6   8.0000E-10  5.0000E-10  5.0000E-10  2.0000E-10  2.0000E-10  1.0000E-10  1.0000E-10  1.0000E-10  1.0000E-10  5.0000E-10
   7   8.0000E-10  5.0000E-10  5.0000E-10  2.0000E-10  2.0000E-10  1.0000E-10  1.0000E-10  2.0000E-10  2.0000E-10   0.000    
   8    0.000      5.0000E-10  5.0000E-10  2.0000E-10  2.0000E-10  1.0000E-10  1.0000E-10  2.0000E-10  5.0000E-10   0.000    
   9    0.000      5.0000E-10  5.0000E-10  2.0000E-10  2.0000E-10  1.0000E-10  1.0000E-10  2.0000E-10  5.0000E-10   0.000    
  10    0.000      5.0000E-10  5.0000E-10  2.0000E-10  2.0000E-10  1.0000E-10  1.0000E-10  2.0000E-10  5.0000E-10  8.0000E-10
  11    0.000      1.0000E-10  1.0000E-10  1.0000E-10  1.0000E-10  1.0000E-10  1.0000E-10  2.0000E-10  5.0000E-10   0.000    
  12   1.0000E-10  1.0000E-10  1.0000E-10  1.0000E-10  1.0000E-10  1.0000E-10  1.0000E-10  1.0000E-10  2.0000E-10   0.000    
  13   1.0000E-10  1.0000E-10  2.0000E-10  2.0000E-10  2.0000E-10  2.0000E-10  2.0000E-10  1.0000E-10  1.0000E-10   0.000    
  14    0.000      2.0000E-10  5.0000E-10  5.0000E-10  5.0000E-10  5.0000E-10  5.0000E-10  2.0000E-10  1.0000E-10   0.000    
  15    0.000       0.000      8.0000E-10  8.0000E-10  8.0000E-10  8.0000E-10   0.000       0.000       0.000       0.000    

                  ET RATE =  1.500000E-07

 USING ET EXTINCTION DEPTH FROM PREVIOUS STRESS PERIOD. CURRENT PERIOD IS:      19

 USING EXTINCTION WATER CONTENT FROM PREVIOUS STRESS PERIOD. CURRENT PERIOD IS:      19

 USING AIR ENTRY PRESSURE FROM PREVIOUS STRESS PERIOD. CURRENT PERIOD IS:      19

 USING ROOT PRESSURE HEAD FROM PREVIOUS STRESS PERIOD. CURRENT PERIOD IS:      19

 USING ROOT ACTIVITY FROM PREVIOUS STRESS PERIOD. CURRENT PERIOD IS:      19

 PROCESSING AG STRESS PERIOD DATA

 READING AG STRESS PERIOD DATA

 READING IRRIGATION SEGMENT

 READING IRRIGATION WELL

 READING SUPPLEMENTAL WELL

 NO IRRPOND OR REUSING IRRPOND DATA FROM LAST STRESS PERIOD

 END PROCESSING AG STRESS PERIOD DATA OPTIONS
 
 SOLVING FOR HEAD 
                                                   Max.-Head-Change                         Max.-Flux-Residual
  Residual-Control   Outer-Iter.   Inner-Iter.     Column Row Layer    Maximum-Head-Change  Column Row Layer    Maximum-Flux-Residual          L2-NORM 
          0                 1           2             4    7     1       0.6775735646E-02       4    7    1         0.3541909091E+00      0.1162696846E+01
          0                 2           2             4    7     1      -0.5607069717E-01       4    7    1        -0.3011198909E+01      0.7364248341E+01
          0                 3           2             4    7     1       0.3818168529E-02       4    7    1         0.2107808239E+00      0.5154647412E+00
          0                 4           2             4    7     1      -0.1519409097E-03       4    6    1        -0.8662051781E-02      0.2110639529E-01
          0                 5           1             4    7     1       0.1873497080E-05       4    6    1         0.1097748777E-03      0.2676082792E-03

    ------------------------------------------------
       NWT REQUIRED            5 OUTER ITERATIONS 
       AND A TOTAL OF          9 INNER ITERATIONS.
    ------------------------------------------------

 OUTPUT CONTROL FOR STRESS PERIOD   19   TIME STEP    1
    PRINT BUDGET
    SAVE BUDGET
 UBDSV1 SAVING "         STORAGE" ON UNIT 102 AT TIME STEP 1, STRESS PERIOD 19
 UBDSV2 SAVING "   CONSTANT HEAD" ON UNIT 102 AT TIME STEP 1, STRESS PERIOD 19
 UBDSV1 SAVING "FLOW RIGHT FACE " ON UNIT 102 AT TIME STEP 1, STRESS PERIOD 19
 UBDSV1 SAVING "FLOW FRONT FACE " ON UNIT 102 AT TIME STEP 1, STRESS PERIOD 19

  HEAD DEP BOUNDS   PERIOD   19   STEP     1
 BOUNDARY      1   LAYER   1   ROW    13   COL     1   RATE   -0.288744    
 BOUNDARY      2   LAYER   1   ROW    14   COL     9   RATE    0.288268    



 STREAM LISTING     PERIOD     19   STEP        1

 LAYER ROW COL. STREAM  RCH.  FLOW INTO     FLOW TO   FLOW OUT OF   OVRLND.     DIRECT     STREAM       STREAM     STREAM     STREAM   STREAMBED  STREAMBED
                SEG.NO.  NO.  STRM. RCH.    AQUIFER    STRM. RCH.    RUNOFF     PRECIP       ET          HEAD       DEPTH      WIDTH   CONDCTNC.   GRADIENT

   1    1    1     1     1    2.1826E+01  2.3002E-01   2.1596E+01  0.000E+00  0.000E+00  0.000E+00  1.09418E+03  1.129E+00  1.238E+01  5.571E-02  1.376E+00
   1    2    2     1     2    2.1596E+01  3.5556E-01   2.1240E+01  0.000E+00  0.000E+00  0.000E+00  1.08918E+03  1.124E+00  1.232E+01  8.622E-02  1.375E+00
   1    3    3     1     3    2.1240E+01  3.0257E-01   2.0938E+01  0.000E+00  0.000E+00  0.000E+00  1.08354E+03  1.119E+00  1.224E+01  7.347E-02  1.373E+00
   1    3    4     1     4    2.0938E+01  2.7808E-01   2.0660E+01  0.000E+00  0.000E+00  0.000E+00  1.07852E+03  1.114E+00  1.218E+01  6.760E-02  1.371E+00
   1    4    5     2     1    1.8660E+01  3.1263E-01   1.8347E+01  0.000E+00  0.000E+00  0.000E+00  1.07294E+03  1.008E+00  1.200E+01  7.800E-02  1.336E+00
   1    5    6     2     2    1.8347E+01  2.3994E-01   1.8107E+01  0.000E+00  0.000E+00  0.000E+00  1.06751E+03  9.990E-01  1.200E+01  6.000E-02  1.333E+00
   1    6    6     2     3    1.8107E+01  2.3947E-01   1.7868E+01  0.000E+00  0.000E+00  0.000E+00  1.06278E+03  9.911E-01  1.200E+01  6.000E-02  1.330E+00
   1    7    6     2     4    1.7868E+01  2.3899E-01   1.7629E+01  0.000E+00  0.000E+00  0.000E+00  1.05806E+03  9.832E-01  1.200E+01  6.000E-02  1.328E+00
   1    8    6     2     5    1.7629E+01  2.3851E-01   1.7390E+01  0.000E+00  0.000E+00  0.000E+00  1.05333E+03  9.752E-01  1.200E+01  6.000E-02  1.325E+00
   1    3    5     3     1    2.0000E+00  2.8252E-01   1.7175E+00  0.000E+00  0.000E+00  0.000E+00  1.07555E+03  1.909E+00  9.636E+00  7.227E-02  1.955E+00
   1    3    6     3     2    1.7175E+00  2.4905E-01   1.4684E+00  0.000E+00  0.000E+00  0.000E+00  1.07264E+03  1.727E+00  8.909E+00  6.682E-02  1.864E+00
   1    3    7     3     3    1.4684E+00  1.9718E-01   1.2712E+00  0.000E+00  0.000E+00  0.000E+00  1.06987E+03  1.555E+00  8.218E+00  5.547E-02  1.777E+00
   1    4    8     3     4    1.2712E+00  2.2567E-01   1.0456E+00  0.000E+00  0.000E+00  0.000E+00  1.06682E+03  1.364E+00  7.455E+00  6.709E-02  1.682E+00
   1    5    8     3     5    1.0456E+00  1.5790E-01   8.8768E-01  0.000E+00  0.000E+00  0.000E+00  1.06362E+03  1.164E+00  6.655E+00  4.991E-02  1.582E+00
   1    6    8     3     6    8.8768E-01  5.5980E-02   8.3170E-01  0.000E+00  0.000E+00  0.000E+00  1.06158E+03  1.036E+00  6.145E+00  1.844E-02  1.518E+00
   1    5   10     4     1    1.0000E+01  9.0919E-02   9.9091E+00  0.000E+00  0.000E+00  0.000E+00  1.07836E+03  6.368E-01  1.000E+01  2.500E-02  1.212E+00
   1    5    9     4     2    9.9091E+00  1.8158E-01   9.7275E+00  0.000E+00  0.000E+00  0.000E+00  1.07154E+03  6.315E-01  1.000E+01  5.000E-02  1.211E+00
   1    6    8     4     3    9.7275E+00  1.2689E-01   9.6006E+00  0.000E+00  0.000E+00  0.000E+00  1.06381E+03  6.256E-01  1.000E+01  3.500E-02  1.209E+00
   1    6    8     5     1    1.0432E+01  2.2686E-01   1.0205E+01  0.000E+00  0.000E+00  0.000E+00  1.05868E+03  6.790E-01  1.542E+01  6.166E-02  1.226E+00
   1    7    7     5     2    1.0205E+01  2.7894E-01   9.9265E+00  0.000E+00  0.000E+00  0.000E+00  1.05417E+03  6.732E-01  1.519E+01  7.594E-02  1.224E+00
   1    8    7     5     3    9.9265E+00  1.9221E-01   9.7343E+00  0.000E+00  0.000E+00  0.000E+00  1.04992E+03  6.676E-01  1.497E+01  5.241E-02  1.223E+00
   1    8    6     5     4    9.7343E+00  1.3577E-01   9.5985E+00  0.000E+00  0.000E+00  0.000E+00  1.04691E+03  6.637E-01  1.482E+01  3.706E-02  1.221E+00
   1    9    6     6     1    9.5985E+00  2.2097E-01   9.3776E+00  0.000E+00  0.000E+00  0.000E+00  1.04341E+03  6.828E-01  1.200E+01  6.000E-02  1.228E+00
   1   10    7     6     2    9.3776E+00  2.2039E-01   9.1572E+00  0.000E+00  0.000E+00  0.000E+00  1.03885E+03  6.732E-01  1.200E+01  6.000E-02  1.224E+00
   1   11    7     6     3    9.1572E+00  2.1981E-01   8.9374E+00  0.000E+00  0.000E+00  0.000E+00  1.03430E+03  6.636E-01  1.200E+01  6.000E-02  1.221E+00
   1   12    7     6     4    8.9374E+00  2.1923E-01   8.7181E+00  0.000E+00  0.000E+00  0.000E+00  1.02974E+03  6.539E-01  1.200E+01  6.000E-02  1.218E+00
   1   13    7     6     5    8.7181E+00 -3.8320E-02   8.7565E+00  0.000E+00  0.000E+00  0.000E+00  1.02656E+03  6.498E-01  1.200E+01  2.400E-01 -5.322E-02
   1   14    9     7     1    1.5000E+02  1.3727E+00   1.4863E+02  0.000E+00  0.000E+00  0.000E+00  1.03987E+03  2.288E+00  5.529E+01  5.593E-01  8.181E-01
   1   13    8     7     2    1.4863E+02  1.9469E+00   1.4668E+02  0.000E+00  0.000E+00  0.000E+00  1.03478E+03  2.279E+00  5.525E+01  6.147E-01  1.056E+00
   1   13    7     7     3    1.4668E+02  1.6584E+00   1.4502E+02  0.000E+00  0.000E+00  0.000E+00  1.02969E+03  2.269E+00  5.521E+01  5.584E-01  9.900E-01
   1   13    6     8     1    1.5378E+02  1.0158E+00   1.5276E+02  0.000E+00  0.000E+00  0.000E+00  1.02471E+03  2.840E+00  4.118E+01  4.196E-01  8.070E-01
   1   13    5     8     2    1.5276E+02  2.8051E-01   1.5248E+02  0.000E+00  0.000E+00  0.000E+00  1.01846E+03  2.835E+00  4.111E+01  4.189E-01  2.232E-01
   1   13    4     8     3    1.5248E+02 -2.1983E+00   1.5468E+02  0.000E+00  0.000E+00  0.000E+00  1.01222E+03  2.842E+00  4.121E+01  4.199E+00 -1.745E-01
   1   13    3     8     4    1.5468E+02 -3.6292E+00   1.5831E+02  0.000E+00  0.000E+00  0.000E+00  1.00599E+03  2.862E+00  4.150E+01  4.229E+00 -2.861E-01
   1   13    2     8     5    1.5831E+02 -2.7641E+00   1.6107E+02  0.000E+00  0.000E+00  0.000E+00  9.99759E+02  2.884E+00  4.181E+01  4.261E+00 -2.162E-01
   1   13    1     8     6    1.6107E+02 -2.1169E+00   1.6319E+02  0.000E+00  0.000E+00  0.000E+00  9.94775E+02  2.900E+00  4.205E+01  2.571E+00 -2.744E-01
   1    8    6     9     1    1.7390E+01  0.0000E+00   1.7390E+01  0.000E+00  0.000E+00  0.000E+00  1.08191E+03  3.158E+00  4.000E+00  0.000E+00  2.053E+00
   1    8    5     9     2    1.7390E+01  0.0000E+00   1.7390E+01  0.000E+00  0.000E+00  0.000E+00  1.08141E+03  3.158E+00  4.000E+00  0.000E+00  2.053E+00



 UBDSV3 SAVING "           GW ET" ON UNIT  61 AT TIME STEP 1, STRESS PERIOD 19
 UBDSV3 SAVING "    UZF RECHARGE" ON UNIT  61 AT TIME STEP 1, STRESS PERIOD 19
 UBDSV3 SAVING " SURFACE LEAKAGE" ON UNIT  61 AT TIME STEP 1, STRESS PERIOD 19
 UBDSV3 SAVING "       HORT+DUNN" ON UNIT  61 AT TIME STEP 1, STRESS PERIOD 19
 UBDSV3 SAVING "  STORAGE CHANGE" ON UNIT  61 AT TIME STEP 1, STRESS PERIOD 19


UNSATURATED ZONE PACKAGE VOLUMETRIC BUDGET FOR  TIME STEP     1 STRESS PERIOD   19
  ------------------------------------------------------------------------------



     CUMULATIVE VOLUMES      L**3       RATES FOR THIS TIME STEP      L**3/T
     ------------------                 ------------------------

           IN:                                      IN:
           ---                                      ---
        INFILTRATION =   715368376.3144          INFILTRATION =          36.0926

          OUT:                                     OUT:
          ----                                     ----
              UZF ET =   474743881.9373                UZF ET =          23.3175
        UZF RECHARGE =       73224.0000          UZF RECHARGE =       0.0000E+00

            IN - OUT =   240551270.3770              IN - OUT =          12.7751

          STORAGE:                                 STORAGE:
          --------                                 --------
      STORAGE CHANGE =   240551617.3635        STORAGE CHANGE =          12.7751

 PERCENT DISCREPANCY IS DIFFERENCE BETWEEN IN-OUT MINUS CHANGE IN STORAGE
 DIVIDED BY THE AVERAGE OF IN AND OUT TIMES 100

 PERCENT DISCREPANCY =          -0.00     PERCENT DISCREPANCY =           0.00






 

            AG WELLS      PERIOD   19   STEP   1
 AG WELL      1   LAYER   1   ROW     6   COL     4   RATE    -2.97578    
 AG WELL      2   LAYER   1   ROW     6   COL     5   RATE    -2.97578    
 AG WELL      3   LAYER   1   ROW     7   COL     4   RATE    -2.97578    
 AG WELL      4   LAYER   1   ROW     7   COL     5   RATE    -2.97578    
 AG WELL      5   LAYER   1   ROW     8   COL     4   RATE    -2.97578    
 AG WELL      6   LAYER   1   ROW     8   COL     5   RATE    -2.97578    
 
 

   DIVERSION SEGMENTS     PERIOD   19   STEP   1
 SEGMENT      9   RATE     17.3901    
 
 

        SW IRRIGATION     PERIOD   19   STEP   1
 SEGMENT      9   ROW     6   COL     4   RATE     2.89841    
 SEGMENT      9   ROW     6   COL     5   RATE     2.89841    
 SEGMENT      9   ROW     7   COL     4   RATE     2.89841    
 SEGMENT      9   ROW     7   COL     5   RATE     2.89841    
 SEGMENT      9   ROW     8   COL     4   RATE     2.89841    
 SEGMENT      9   ROW     8   COL     5   RATE     2.89841    
 
 

        GW IRRIGATION     PERIOD   19   STEP   1
 AG WELL      1   ROW     6   COL     4   RATE     2.97578    
 AG WELL      2   ROW     6   COL     5   RATE     2.97578    
 AG WELL      3   ROW     7   COL     4   RATE     2.97578    
 AG WELL      4   ROW     7   COL     5   RATE     2.97578    
 AG WELL      5   ROW     8   COL     4   RATE     2.97578    
 AG WELL      6   ROW     8   COL     5   RATE     2.97578    
 
1
  VOLUMETRIC BUDGET FOR AGRICULTURAL FIELDS AT  END OF TIME STEP    1, STRESS PERIOD  19
  ------------------------------------------------------------------------------

     CUMULATIVE VOLUMES      L**3       RATES FOR THIS TIME STEP      L**3/T
     ------------------                 ------------------------

           IN:                                      IN:
           ---                                      ---
               AG WELLS  =   431407040.0000                 AG WELLS  =          17.8547
      DIVERSION SEGMENTS =   245977536.0000        DIVERSION SEGMENTS =          17.3901
       IRRIGATION PONDS  =           0.0000         IRRIGATION PONDS  =           0.0000
           GW IRRIGATION =           0.0000             GW IRRIGATION =           0.0000
           SW IRRIGATION =           0.0000             SW IRRIGATION =           0.0000
        SYSTEM LOSSES GW =           0.0000          SYSTEM LOSSES GW =           0.0000
        SYSTEM LOSSES SW =           0.0000          SYSTEM LOSSES SW =           0.0000

                TOTAL IN =   677384576.0000                  TOTAL IN =          35.2448

          OUT:                                     OUT:
          ----                                     ----
               AG WELLS  =           0.0000                 AG WELLS  =           0.0000
      DIVERSION SEGMENTS =           0.0000        DIVERSION SEGMENTS =           0.0000
       IRRIGATION PONDS  =           0.0000         IRRIGATION PONDS  =           0.0000
           GW IRRIGATION =   431407040.0000             GW IRRIGATION =          17.8547
           SW IRRIGATION =   245982352.0000             SW IRRIGATION =          17.3904
        SYSTEM LOSSES GW =           0.0000          SYSTEM LOSSES GW =           0.0000
        SYSTEM LOSSES SW =           0.0000          SYSTEM LOSSES SW =           0.0000

               TOTAL OUT =   677389376.0000                 TOTAL OUT =          35.2451

                IN - OUT =       -4800.0000                  IN - OUT =      -3.4714E-04

     PERCENT DISCREPANCY =          -0.00         PERCENT DISCREPANCY =          -0.00



1
  VOLUMETRIC BUDGET FOR ENTIRE MODEL AT END OF TIME STEP    1, STRESS PERIOD  19
  ------------------------------------------------------------------------------

     CUMULATIVE VOLUMES      L**3       RATES FOR THIS TIME STEP      L**3/T
     ------------------                 ------------------------

           IN:                                      IN:
           ---                                      ---
             STORAGE     =   720892864.0000               STORAGE     =          19.2816
       CONSTANT HEAD     =           0.0000         CONSTANT HEAD     =           0.0000
     HEAD DEP BOUNDS     =    12926541.0000       HEAD DEP BOUNDS     =           0.2883
      STREAM LEAKAGE     =   530185888.0000        STREAM LEAKAGE     =          11.9919
        UZF RECHARGE     =       73223.9531          UZF RECHARGE     =           0.0000
               GW ET     =           0.0000                 GW ET     =           0.0000
     SURFACE LEAKAGE     =           0.0000       SURFACE LEAKAGE     =           0.0000
           AG WELLS      =           0.0000             AG WELLS      =           0.0000

                TOTAL IN =  1264078464.0000                  TOTAL IN =          31.5617

          OUT:                                     OUT:
          ----                                     ----
             STORAGE     =   363049664.0000               STORAGE     =           2.6715
       CONSTANT HEAD     =           0.0000         CONSTANT HEAD     =           0.0000
     HEAD DEP BOUNDS     =    12936122.0000       HEAD DEP BOUNDS     =           0.2887
      STREAM LEAKAGE     =   456691296.0000        STREAM LEAKAGE     =          10.7468
        UZF RECHARGE     =           0.0000          UZF RECHARGE     =           0.0000
               GW ET     =           0.0000                 GW ET     =           0.0000
     SURFACE LEAKAGE     =           0.0000       SURFACE LEAKAGE     =           0.0000
           AG WELLS      =   431407040.0000             AG WELLS      =          17.8547

               TOTAL OUT =  1264084224.0000                 TOTAL OUT =          31.5617

                IN - OUT =       -5760.0000                  IN - OUT =       1.5259E-05

     PERCENT DISCREPANCY =          -0.00         PERCENT DISCREPANCY =           0.00






         TIME SUMMARY AT END OF TIME STEP    1 IN STRESS PERIOD   19
                    SECONDS     MINUTES      HOURS       DAYS        YEARS
                    -----------------------------------------------------------
   TIME STEP LENGTH  87667.      1461.1      24.352      1.0147     2.77799E-03
 STRESS PERIOD TIME  87667.      1461.1      24.352      1.0147     2.77799E-03
         TOTAL TIME 4.48841E+07 7.48069E+05  12468.      519.49      1.4223    
1
 
 SOLVING FOR HEAD 
                                                   Max.-Head-Change                         Max.-Flux-Residual
  Residual-Control   Outer-Iter.   Inner-Iter.     Column Row Layer    Maximum-Head-Change  Column Row Layer    Maximum-Flux-Residual          L2-NORM 
          0                 1           2             4    7     1       0.7065563020E-02       4    7    1         0.3679993081E+00      0.1110747980E+01
          0                 2           2             7   13     1      -0.1810128908E-02       7   13    1        -0.1005413702E+00      0.1491299888E+00
          0                 3           2             7   13     1       0.1232290108E-03       7   13    1         0.7036004809E-02      0.1042871651E-01
          0                 4           1             7   13     1      -0.4901051945E-05       7   13    1        -0.2876393924E-03      0.4259139290E-03

    ------------------------------------------------
       NWT REQUIRED            4 OUTER ITERATIONS 
       AND A TOTAL OF          7 INNER ITERATIONS.
    ------------------------------------------------

 NO OUTPUT CONTROL FOR STRESS PERIOD   19   TIME STEP    2
 
 SOLVING FOR HEAD 
                                                   Max.-Head-Change                         Max.-Flux-Residual
  Residual-Control   Outer-Iter.   Inner-Iter.     Column Row Layer    Maximum-Head-Change  Column Row Layer    Maximum-Flux-Residual          L2-NORM 
          0                 1           2             4    7     1       0.7046918688E-02       4    7    1         0.3671223734E+00      0.1099576582E+01
          0                 2           2             4    7     1      -0.7042071569E-01       4    7    1        -0.3781712393E+01      0.9287149397E+01
          0                 3           2             4    7     1       0.5707746476E-01       4    7    1         0.3150920584E+01      0.7717315893E+01
          0                 4           2             4    7     1      -0.2271219293E-02       4    8    1        -0.1288806067E+00      0.3156624150E+00
          0                 5           1             4    7     1       0.2800503186E-04       4    8    1         0.1633299799E-02      0.4006965660E-02

    ------------------------------------------------
       NWT REQUIRED            5 OUTER ITERATIONS 
       AND A TOTAL OF          9 INNER ITERATIONS.
    ------------------------------------------------

 NO OUTPUT CONTROL FOR STRESS PERIOD   19   TIME STEP    3
 
 SOLVING FOR HEAD 
                                                   Max.-Head-Change                         Max.-Flux-Residual
  Residual-Control   Outer-Iter.   Inner-Iter.     Column Row Layer    Maximum-Head-Change  Column Row Layer    Maximum-Flux-Residual          L2-NORM 
          0                 1           2             4    8     1       0.7141599265E-02       4    8    1         0.3744310980E+00      0.1120450527E+01
          0                 2           2             4    7     1      -0.1467159121E-01       4    8    1        -0.7881443866E+00      0.1942758679E+01
          0                 3           2             4    7     1      -0.4011802946E-01       5    7    1        -0.2154551375E+01      0.5300270761E+01
          0                 4           2             4    7     1       0.4141653154E-01       5    7    1         0.2286344081E+01      0.5600569374E+01
          0                 5           2             4    7     1      -0.1648421520E-02       4    8    1        -0.9353810718E-01      0.2291310057E+00
          0                 6           1             4    7     1       0.2034079634E-04       4    8    1         0.1186288465E-02      0.2907500879E-02

    ------------------------------------------------
       NWT REQUIRED            6 OUTER ITERATIONS 
       AND A TOTAL OF         11 INNER ITERATIONS.
    ------------------------------------------------

 NO OUTPUT CONTROL FOR STRESS PERIOD   19   TIME STEP    4
 
 SOLVING FOR HEAD 
                                                   Max.-Head-Change                         Max.-Flux-Residual
  Residual-Control   Outer-Iter.   Inner-Iter.     Column Row Layer    Maximum-Head-Change  Column Row Layer    Maximum-Flux-Residual          L2-NORM 
          0                 1           2             4    8     1       0.7336277304E-02       5    8    1         0.3852740543E+00      0.1140642546E+01
          0                 2           2             4    7     1      -0.1520245243E-01       5    8    1        -0.8173418954E+00      0.2014914588E+01
          0                 3           2             4    7     1      -0.3918464938E-01       5    7    1        -0.2104386456E+01      0.5177270700E+01
          0                 4           2             4    7     1       0.4084371042E-01       5    7    1         0.2254718932E+01      0.5523100314E+01
          0                 5           2             4    7     1      -0.1625622252E-02       4    8    1        -0.9224418697E-01      0.2259616150E+00
          0                 6           1             4    7     1       0.2005946388E-04       4    8    1         0.1169878535E-02      0.2867306851E-02

    ------------------------------------------------
       NWT REQUIRED            6 OUTER ITERATIONS 
       AND A TOTAL OF         11 INNER ITERATIONS.
    ------------------------------------------------

 NO OUTPUT CONTROL FOR STRESS PERIOD   19   TIME STEP    5
 
 SOLVING FOR HEAD 
                                                   Max.-Head-Change                         Max.-Flux-Residual
  Residual-Control   Outer-Iter.   Inner-Iter.     Column Row Layer    Maximum-Head-Change  Column Row Layer    Maximum-Flux-Residual          L2-NORM 
          0                 1           2             5    8     1       0.7551356355E-02       5    8    1         0.4012861890E+00      0.1161762996E+01
          0                 2           2             4    7     1      -0.1560524788E-01       5    8    1        -0.8401543304E+00      0.2070039377E+01
          0                 3           2             4    7     1      -0.3848686433E-01       5    7    1        -0.2066875488E+01      0.5085298047E+01
          0                 4           2             4    7     1       0.4041196069E-01       5    7    1         0.2230881539E+01      0.5464707546E+01
          0                 5           2             4    7     1      -0.1608437876E-02       4    8    1        -0.9126889724E-01      0.2235726361E+00
          0                 6           1             4    7     1       0.1984741705E-04       4    8    1         0.1157509597E-02      0.2836993359E-02

    ------------------------------------------------
       NWT REQUIRED            6 OUTER ITERATIONS 
       AND A TOTAL OF         11 INNER ITERATIONS.
    ------------------------------------------------

 NO OUTPUT CONTROL FOR STRESS PERIOD   19   TIME STEP    6
 
 SOLVING FOR HEAD 
                                                   Max.-Head-Change                         Max.-Flux-Residual
  Residual-Control   Outer-Iter.   Inner-Iter.     Column Row Layer    Maximum-Head-Change  Column Row Layer    Maximum-Flux-Residual          L2-NORM 
          0                 1           2             5    8     1       0.7829870063E-02       5    8    1         0.4165991862E+00      0.1183451066E+01
          0                 2           2             4    7     1      -0.1590766880E-01       5    8    1        -0.8574837363E+00      0.2111781595E+01
          0                 3           2             4    7     1      -0.3797063790E-01       4    7    1        -0.2039117427E+01      0.5017239115E+01
          0                 4           2             4    7     1       0.4009063387E-01       5    7    1         0.2213140018E+01      0.5421246778E+01
          0                 5           2             4    7     1      -0.1595648524E-02       4    8    1        -0.9054301531E-01      0.2217945279E+00
          0                 6           1             4    7     1       0.1968960214E-04       4    8    1         0.1148303719E-02      0.2814429633E-02

    ------------------------------------------------
       NWT REQUIRED            6 OUTER ITERATIONS 
       AND A TOTAL OF         11 INNER ITERATIONS.
    ------------------------------------------------

 NO OUTPUT CONTROL FOR STRESS PERIOD   19   TIME STEP    7
 
 SOLVING FOR HEAD 
                                                   Max.-Head-Change                         Max.-Flux-Residual
  Residual-Control   Outer-Iter.   Inner-Iter.     Column Row Layer    Maximum-Head-Change  Column Row Layer    Maximum-Flux-Residual          L2-NORM 
          0                 1           2             5    8     1       0.8095964394E-02       5    8    1         0.4312184823E+00      0.1205429098E+01
          0                 2           2             4    7     1      -0.1613333222E-01       5    8    1        -0.8706019641E+00      0.2143259441E+01
          0                 3           2             4    7     1      -0.3759157542E-01       4    7    1        -0.2018761654E+01      0.4967248990E+01
          0                 4           2             4    7     1       0.3985368125E-01       4    7    1         0.2200057905E+01      0.5389195689E+01
          0                 5           2             4    7     1      -0.1586217411E-02       4    8    1        -0.9000770722E-01      0.2204832060E+00
          0                 6           1             4    7     1       0.1957322649E-04       4    8    1         0.1141514766E-02      0.2797795530E-02

    ------------------------------------------------
       NWT REQUIRED            6 OUTER ITERATIONS 
       AND A TOTAL OF         11 INNER ITERATIONS.
    ------------------------------------------------

 NO OUTPUT CONTROL FOR STRESS PERIOD   19   TIME STEP    8
 
 SOLVING FOR HEAD 
                                                   Max.-Head-Change                         Max.-Flux-Residual
  Residual-Control   Outer-Iter.   Inner-Iter.     Column Row Layer    Maximum-Head-Change  Column Row Layer    Maximum-Flux-Residual          L2-NORM 
          0                 1           2             5    8     1       0.8349695035E-02       5    8    1         0.4451485839E+00      0.1227465638E+01
          0                 2           2             4    7     1      -0.1630133502E-01       5    8    1        -0.8805370485E+00      0.2166996410E+01
          0                 3           2             4    7     1      -0.3731467431E-01       4    7    1        -0.2003892044E+01      0.4930719494E+01
          0                 4           2             4    7     1       0.3968009690E-01       4    7    1         0.2190474843E+01      0.5365713531E+01
          0                 5           2             4    7     1      -0.1579308463E-02       4    8    1        -0.8961552929E-01      0.2195223664E+00
          0                 6           1             4    7     1       0.1948797345E-04       4    8    1         0.1136541039E-02      0.2785567873E-02

    ------------------------------------------------
       NWT REQUIRED            6 OUTER ITERATIONS 
       AND A TOTAL OF         11 INNER ITERATIONS.
    ------------------------------------------------

 NO OUTPUT CONTROL FOR STRESS PERIOD   19   TIME STEP    9
 
 SOLVING FOR HEAD 
                                                   Max.-Head-Change                         Max.-Flux-Residual
  Residual-Control   Outer-Iter.   Inner-Iter.     Column Row Layer    Maximum-Head-Change  Column Row Layer    Maximum-Flux-Residual          L2-NORM 
          0                 1           2             5    8     1       0.8591672129E-02       5    8    1         0.4584236252E+00      0.1249383550E+01
          0                 2           2             4    7     1      -0.1642652164E-01       5    8    1        -0.8880934894E+00      0.2184959053E+01
          0                 3           2             4    7     1      -0.3711314106E-01       4    7    1        -0.1993069737E+01      0.4904119450E+01
          0                 4           2             4    7     1       0.3955354555E-01       4    7    1         0.2183488146E+01      0.5348592117E+01
          0                 5           2             4    7     1      -0.1574271507E-02       4    8    1        -0.8932958617E-01      0.2188219188E+00
          0                 6           1             4    7     1       0.1942581965E-04       4    8    1         0.1132914588E-02      0.2776675444E-02

    ------------------------------------------------
       NWT REQUIRED            6 OUTER ITERATIONS 
       AND A TOTAL OF         11 INNER ITERATIONS.
    ------------------------------------------------

 NO OUTPUT CONTROL FOR STRESS PERIOD   19   TIME STEP   10
 
 SOLVING FOR HEAD 
                                                   Max.-Head-Change                         Max.-Flux-Residual
  Residual-Control   Outer-Iter.   Inner-Iter.     Column Row Layer    Maximum-Head-Change  Column Row Layer    Maximum-Flux-Residual          L2-NORM 
          0                 1           2             5    8     1       0.8821998154E-02       5    8    1         0.4710506158E+00      0.1271042490E+01
          0                 2           2             4    7     1      -0.1652025053E-01       5    8    1        -0.8938820412E+00      0.2198646990E+01
          0                 3           2             4    7     1      -0.3696682045E-01       4    7    1        -0.1985212350E+01      0.4884806909E+01
          0                 4           2             4    7     1       0.3948031891E-01       5    7    1         0.2178404375E+01      0.5336082859E+01
          0                 5           2             4    7     1      -0.1589559562E-02       4    7    1        -0.9025389075E-01      0.2187806955E+00
          0                 6           1             4    7     1       0.1961446391E-04       4    7    1         0.1144828979E-02      0.2776386029E-02

    ------------------------------------------------
       NWT REQUIRED            6 OUTER ITERATIONS 
       AND A TOTAL OF         11 INNER ITERATIONS.
    ------------------------------------------------

 NO OUTPUT CONTROL FOR STRESS PERIOD   19   TIME STEP   11
 
 SOLVING FOR HEAD 
                                                   Max.-Head-Change                         Max.-Flux-Residual
  Residual-Control   Outer-Iter.   Inner-Iter.     Column Row Layer    Maximum-Head-Change  Column Row Layer    Maximum-Flux-Residual          L2-NORM 
          0                 1           2             5    8     1       0.9041435292E-02       5    8    1         0.4830718747E+00      0.1292345849E+01
          0                 2           2             4    7     1      -0.1659097608E-01       5    8    1        -0.8983644015E+00      0.2209186620E+01
          0                 3           2             4    7     1      -0.3686073728E-01       4    7    1        -0.1979515695E+01      0.4870788417E+01
          0                 4           2             4    7     1       0.3940707021E-01       5    7    1         0.2174723391E+01      0.5326908456E+01
          0                 5           2             4    7     1      -0.1580210049E-02       4    7    1        -0.8970253638E-01      0.2182448443E+00
          0                 6           1             4    7     1       0.1949909618E-04       4    7    1         0.1137728605E-02      0.2769352755E-02

    ------------------------------------------------
       NWT REQUIRED            6 OUTER ITERATIONS 
       AND A TOTAL OF         11 INNER ITERATIONS.
    ------------------------------------------------

 NO OUTPUT CONTROL FOR STRESS PERIOD   19   TIME STEP   12
 
 SOLVING FOR HEAD 
                                                   Max.-Head-Change                         Max.-Flux-Residual
  Residual-Control   Outer-Iter.   Inner-Iter.     Column Row Layer    Maximum-Head-Change  Column Row Layer    Maximum-Flux-Residual          L2-NORM 
          0                 1           2             5    8     1       0.9250191975E-02       5    8    1         0.4944999327E+00      0.1313219782E+01
          0                 2           2             4    7     1      -0.1664499110E-01       5    8    1        -0.9018801393E+00      0.2217411814E+01
          0                 3           2             4    7     1      -0.3678388914E-01       4    7    1        -0.1975388919E+01      0.4860624699E+01
          0                 4           2             4    7     1       0.3935237597E-01       5    7    1         0.2172060058E+01      0.5320229628E+01
          0                 5           2             4    7     1      -0.1571718015E-02       4    7    1        -0.8920022256E-01      0.2178154013E+00
          0                 6           1             4    7     1       0.1939431004E-04       4    7    1         0.1131278485E-02      0.2763799915E-02

    ------------------------------------------------
       NWT REQUIRED            6 OUTER ITERATIONS 
       AND A TOTAL OF         11 INNER ITERATIONS.
    ------------------------------------------------

 NO OUTPUT CONTROL FOR STRESS PERIOD   19   TIME STEP   13
 
 SOLVING FOR HEAD 
                                                   Max.-Head-Change                         Max.-Flux-Residual
  Residual-Control   Outer-Iter.   Inner-Iter.     Column Row Layer    Maximum-Head-Change  Column Row Layer    Maximum-Flux-Residual          L2-NORM 
          0                 1           2             5    8     1       0.9449083880E-02       5    8    1         0.5053803938E+00      0.1333607370E+01
          0                 2           2             4    7     1      -0.1668688226E-01       5    8    1        -0.9046824856E+00      0.2223935688E+01
          0                 3           2             4    7     1      -0.3674962594E-01       4    7    1        -0.1972476055E+01      0.4853286253E+01
          0                 4           2             4    7     1       0.3933345828E-01       4    7    1         0.2170154017E+01      0.5315890225E+01
          0                 5           2             4    7     1      -0.1564770145E-02       4    7    1        -0.8878867386E-01      0.2174859212E+00
          0                 6           1             5    7     1       0.1911022692E-04       4    8    1         0.1125988838E-02      0.2742272547E-02

    ------------------------------------------------
       NWT REQUIRED            6 OUTER ITERATIONS 
       AND A TOTAL OF         11 INNER ITERATIONS.
    ------------------------------------------------

 NO OUTPUT CONTROL FOR STRESS PERIOD   19   TIME STEP   14
 
 SOLVING FOR HEAD 
                                                   Max.-Head-Change                         Max.-Flux-Residual
  Residual-Control   Outer-Iter.   Inner-Iter.     Column Row Layer    Maximum-Head-Change  Column Row Layer    Maximum-Flux-Residual          L2-NORM 
          0                 1           2             5    8     1       0.9638344448E-02       5    8    1         0.5157266683E+00      0.1353460623E+01
          0                 2           2             4    7     1      -0.1672167384E-01       5    8    1        -0.9069538008E+00      0.2229243597E+01
          0                 3           2             4    7     1      -0.3671556688E-01       4    7    1        -0.1970666598E+01      0.4848085224E+01
          0                 4           2             4    7     1       0.3930873028E-01       4    7    1         0.2168790778E+01      0.5312494885E+01
          0                 5           2             4    7     1      -0.1564511959E-02       4    8    1        -0.8872663708E-01      0.2173438004E+00
          0                 6           1             4    7     1       0.1930541693E-04       4    8    1         0.1125267822E-02      0.2757776224E-02

    ------------------------------------------------
       NWT REQUIRED            6 OUTER ITERATIONS 
       AND A TOTAL OF         11 INNER ITERATIONS.
    ------------------------------------------------

 NO OUTPUT CONTROL FOR STRESS PERIOD   19   TIME STEP   15
 
 SOLVING FOR HEAD 
                                                   Max.-Head-Change                         Max.-Flux-Residual
  Residual-Control   Outer-Iter.   Inner-Iter.     Column Row Layer    Maximum-Head-Change  Column Row Layer    Maximum-Flux-Residual          L2-NORM 
          0                 1           2             5    8     1       0.9818637775E-02       5    8    1         0.5255761386E+00      0.1372705272E+01
          0                 2           2             4    7     1      -0.1675505155E-01       5    8    1        -0.9088308010E+00      0.2233536802E+01
          0                 3           2             4    7     1      -0.3667862727E-01       4    7    1        -0.1968662366E+01      0.4844023444E+01
          0                 4           2             4    7     1       0.3929005056E-01       4    7    1         0.2167758421E+01      0.5310023083E+01
          0                 5           2             4    7     1      -0.1563768489E-02       4    8    1        -0.8868558513E-01      0.2172425664E+00
          0                 6           1             4    7     1       0.1929624260E-04       4    8    1         0.1124747184E-02      0.2756474362E-02

    ------------------------------------------------
       NWT REQUIRED            6 OUTER ITERATIONS 
       AND A TOTAL OF         11 INNER ITERATIONS.
    ------------------------------------------------

 NO OUTPUT CONTROL FOR STRESS PERIOD   19   TIME STEP   16
 
 SOLVING FOR HEAD 
                                                   Max.-Head-Change                         Max.-Flux-Residual
  Residual-Control   Outer-Iter.   Inner-Iter.     Column Row Layer    Maximum-Head-Change  Column Row Layer    Maximum-Flux-Residual          L2-NORM 
          0                 1           2             5    8     1       0.9990328294E-02       5    8    1         0.5349493068E+00      0.1391389394E+01
          0                 2           2             4    7     1      -0.1677673494E-01       5    8    1        -0.9104112019E+00      0.2237183756E+01
          0                 3           2             4    7     1      -0.3665733656E-01       4    7    1        -0.1967520005E+01      0.4841192779E+01
          0                 4           2             4    7     1       0.3927694819E-01       4    7    1         0.2167035311E+01      0.5308247239E+01
          0                 5           2             4    7     1      -0.1563247003E-02       4    8    1        -0.8865594974E-01      0.2171698202E+00
          0                 6           1             4    7     1       0.1928980774E-04       4    8    1         0.1124371342E-02      0.2755536390E-02

    ------------------------------------------------
       NWT REQUIRED            6 OUTER ITERATIONS 
       AND A TOTAL OF         11 INNER ITERATIONS.
    ------------------------------------------------

 NO OUTPUT CONTROL FOR STRESS PERIOD   19   TIME STEP   17
 
 SOLVING FOR HEAD 
                                                   Max.-Head-Change                         Max.-Flux-Residual
  Residual-Control   Outer-Iter.   Inner-Iter.     Column Row Layer    Maximum-Head-Change  Column Row Layer    Maximum-Flux-Residual          L2-NORM 
          0                 1           2             5    8     1       0.1015405552E-01       5    8    1         0.5438816055E+00      0.1409519850E+01
          0                 2           2             4    7     1      -0.1679516449E-01       5    8    1        -0.9117681651E+00      0.2240320022E+01
          0                 3           2             4    7     1      -0.3664179640E-01       4    7    1        -0.1966686203E+01      0.4839122974E+01
          0                 4           2             4    7     1       0.3926748720E-01       4    7    1         0.2166513093E+01      0.5306963873E+01
          0                 5           2             4    7     1      -0.1562870448E-02       4    8    1        -0.8863453917E-01      0.2171172167E+00
          0                 6           1             4    7     1       0.1928516121E-04       4    8    1         0.1124099787E-02      0.2754852364E-02

    ------------------------------------------------
       NWT REQUIRED            6 OUTER ITERATIONS 
       AND A TOTAL OF         11 INNER ITERATIONS.
    ------------------------------------------------

 NO OUTPUT CONTROL FOR STRESS PERIOD   19   TIME STEP   18
 
 SOLVING FOR HEAD 
                                                   Max.-Head-Change                         Max.-Flux-Residual
  Residual-Control   Outer-Iter.   Inner-Iter.     Column Row Layer    Maximum-Head-Change  Column Row Layer    Maximum-Flux-Residual          L2-NORM 
          0                 1           2             5    8     1       0.1031014102E-01       5    8    1         0.5523912385E+00      0.1427097506E+01
          0                 2           2             4    7     1      -0.1681124885E-01       5    8    1        -0.9129527443E+00      0.2243068718E+01
          0                 3           2             4    7     1      -0.3663041731E-01       4    7    1        -0.1966075652E+01      0.4837604611E+01
          0                 4           2             4    7     1       0.3926067025E-01       4    7    1         0.2166136741E+01      0.5306038178E+01
          0                 5           2             4    7     1      -0.1562599127E-02       4    8    1        -0.8861910207E-01      0.2170792428E+00
          0                 6           1             4    7     1       0.1928181328E-04       4    8    1         0.1123904020E-02      0.2754345976E-02

    ------------------------------------------------
       NWT REQUIRED            6 OUTER ITERATIONS 
       AND A TOTAL OF         11 INNER ITERATIONS.
    ------------------------------------------------

 NO OUTPUT CONTROL FOR STRESS PERIOD   19   TIME STEP   19
 
 SOLVING FOR HEAD 
                                                   Max.-Head-Change                         Max.-Flux-Residual
  Residual-Control   Outer-Iter.   Inner-Iter.     Column Row Layer    Maximum-Head-Change  Column Row Layer    Maximum-Flux-Residual          L2-NORM 
          0                 1           2             5    8     1       0.1045917091E-01       5    8    1         0.5605110945E+00      0.1444131256E+01
          0                 2           2             4    7     1      -0.1682564540E-01       5    8    1        -0.9140053026E+00      0.2245524879E+01
          0                 3           2             4    7     1      -0.3662202273E-01       4    7    1        -0.1965625212E+01      0.4836482437E+01
          0                 4           2             4    7     1       0.3925574629E-01       4    7    1         0.2165864821E+01      0.5305368625E+01
          0                 5           2             4    7     1      -0.1562403149E-02       4    8    1        -0.8860794253E-01      0.2170517540E+00
          0                 6           1             4    7     1       0.1927939497E-04       4    8    1         0.1123762479E-02      0.2753977589E-02

    ------------------------------------------------
       NWT REQUIRED            6 OUTER ITERATIONS 
       AND A TOTAL OF         11 INNER ITERATIONS.
    ------------------------------------------------

 NO OUTPUT CONTROL FOR STRESS PERIOD   19   TIME STEP   20
 
 SOLVING FOR HEAD 
                                                   Max.-Head-Change                         Max.-Flux-Residual
  Residual-Control   Outer-Iter.   Inner-Iter.     Column Row Layer    Maximum-Head-Change  Column Row Layer    Maximum-Flux-Residual          L2-NORM 
          0                 1           2             5    8     1       0.1060142056E-01       5    8    1         0.5682562709E+00      0.1460632372E+01
          0                 2           2             4    7     1      -0.1683883001E-01       5    8    1        -0.9149531585E+00      0.2247753958E+01
          0                 3           2             4    7     1      -0.3661577422E-01       4    7    1        -0.1965289884E+01      0.4835645946E+01
          0                 4           2             4    7     1       0.3925218071E-01       4    7    1         0.2165667835E+01      0.5304882958E+01
          0                 5           2             4    7     1      -0.1562261236E-02       4    8    1        -0.8859985358E-01      0.2170317993E+00
          0                 6           1             4    7     1       0.1927764394E-04       4    8    1         0.1123659891E-02      0.2753708795E-02

    ------------------------------------------------
       NWT REQUIRED            6 OUTER ITERATIONS 
       AND A TOTAL OF         11 INNER ITERATIONS.
    ------------------------------------------------

 NO OUTPUT CONTROL FOR STRESS PERIOD   19   TIME STEP   21
 
 SOLVING FOR HEAD 
                                                   Max.-Head-Change                         Max.-Flux-Residual
  Residual-Control   Outer-Iter.   Inner-Iter.     Column Row Layer    Maximum-Head-Change  Column Row Layer    Maximum-Flux-Residual          L2-NORM 
          0                 1           2             5    8     1       0.1073728480E-01       5    8    1         0.5756491761E+00      0.1476609860E+01
          0                 2           2             4    7     1      -0.1685112117E-01       5    8    1        -0.9158172687E+00      0.2249804592E+01
          0                 3           2             4    7     1      -0.3661108310E-01       4    7    1        -0.1965038082E+01      0.4835017572E+01
          0                 4           2             4    7     1       0.3924960715E-01       4    7    1         0.2165525573E+01      0.5304531613E+01
          0                 5           2             4    7     1      -0.1562158806E-02       4    8    1        -0.8859400781E-01      0.2170173289E+00
          0                 6           1             4    7     1       0.1927637984E-04       4    8    1         0.1123585765E-02      0.2753513866E-02

    ------------------------------------------------
       NWT REQUIRED            6 OUTER ITERATIONS 
       AND A TOTAL OF         11 INNER ITERATIONS.
    ------------------------------------------------

 NO OUTPUT CONTROL FOR STRESS PERIOD   19   TIME STEP   22
 
 SOLVING FOR HEAD 
                                                   Max.-Head-Change                         Max.-Flux-Residual
  Residual-Control   Outer-Iter.   Inner-Iter.     Column Row Layer    Maximum-Head-Change  Column Row Layer    Maximum-Flux-Residual          L2-NORM 
          0                 1           2             5    8     1       0.1086700140E-01       5    8    1         0.5827026236E+00      0.1492078920E+01
          0                 2           2             4    7     1      -0.1686277142E-01       5    8    1        -0.9166125641E+00      0.2251714094E+01
          0                 3           2             4    7     1      -0.3660751303E-01       4    7    1        -0.1964846388E+01      0.4834539270E+01
          0                 4           2             4    7     1       0.3924773876E-01       4    7    1         0.2165422210E+01      0.5304275795E+01
          0                 5           2             4    7     1      -0.1562084443E-02       4    8    1        -0.8858975750E-01      0.2170067740E+00
          0                 6           1             4    7     1       0.1927546209E-04       4    8    1         0.1123531867E-02      0.2753385742E-02

    ------------------------------------------------
       NWT REQUIRED            6 OUTER ITERATIONS 
       AND A TOTAL OF         11 INNER ITERATIONS.
    ------------------------------------------------

 NO OUTPUT CONTROL FOR STRESS PERIOD   19   TIME STEP   23
 
 SOLVING FOR HEAD 
                                                   Max.-Head-Change                         Max.-Flux-Residual
  Residual-Control   Outer-Iter.   Inner-Iter.     Column Row Layer    Maximum-Head-Change  Column Row Layer    Maximum-Flux-Residual          L2-NORM 
          0                 1           2             5    8     1       0.1099121535E-01       5    8    1         0.5894526685E+00      0.1507063023E+01
          0                 2           2             4    7     1      -0.1687394422E-01       5    8    1        -0.9173521869E+00      0.2253506014E+01
          0                 3           2             4    7     1      -0.3660475493E-01       4    7    1        -0.1964698218E+01      0.4834170933E+01
          0                 4           2             4    7     1       0.3924638488E-01       4    7    1         0.2165347225E+01      0.5304089873E+01
          0                 5           2             4    7     1      -0.1562030557E-02       4    8    1        -0.8858667204E-01      0.2169990776E+00
          0                 6           1             4    7     1       0.1927479761E-04       4    8    1         0.1123492728E-02      0.2753252069E-02

    ------------------------------------------------
       NWT REQUIRED            6 OUTER ITERATIONS 
       AND A TOTAL OF         11 INNER ITERATIONS.
    ------------------------------------------------

 NO OUTPUT CONTROL FOR STRESS PERIOD   19   TIME STEP   24
 
 SOLVING FOR HEAD 
                                                   Max.-Head-Change                         Max.-Flux-Residual
  Residual-Control   Outer-Iter.   Inner-Iter.     Column Row Layer    Maximum-Head-Change  Column Row Layer    Maximum-Flux-Residual          L2-NORM 
          0                 1           2             5    8     1       0.1111010060E-01       5    8    1         0.5959092824E+00      0.1521566053E+01
          0                 2           2             4    7     1      -0.1688474722E-01       5    8    1        -0.9180443465E+00      0.2255201055E+01
          0                 3           2             4    7     1      -0.3660257358E-01       4    7    1        -0.1964580952E+01      0.4833880121E+01
          0                 4           2             4    7     1       0.3924539875E-01       4    7    1         0.2165292523E+01      0.5303953804E+01
          0                 5           2             4    7     1      -0.1569412589E-02       4    8    1        -0.8900528827E-01      0.2180242745E+00
          0                 6           1             4    7     1       0.1434795652E-04       4    8    1         0.8363217594E-03      0.2050258037E-02

    ------------------------------------------------
       NWT REQUIRED            6 OUTER ITERATIONS 
       AND A TOTAL OF         11 INNER ITERATIONS.
    ------------------------------------------------

 NO OUTPUT CONTROL FOR STRESS PERIOD   19   TIME STEP   25
 
 SOLVING FOR HEAD 
                                                   Max.-Head-Change                         Max.-Flux-Residual
  Residual-Control   Outer-Iter.   Inner-Iter.     Column Row Layer    Maximum-Head-Change  Column Row Layer    Maximum-Flux-Residual          L2-NORM 
          0                 1           2             5    8     1       0.1122422374E-01       5    8    1         0.6021035401E+00      0.1535643474E+01
          0                 2           2             4    7     1      -0.1688466362E-01       5    8    1        -0.9181277540E+00      0.2255418699E+01
          0                 3           2             4    7     1      -0.3661905707E-01       4    7    1        -0.1965465436E+01      0.4836048478E+01
          0                 4           2             4    7     1       0.3925648044E-01       4    7    1         0.2165890411E+01      0.5305318167E+01
          0                 5           2             4    7     1      -0.1562665574E-02       4    8    1        -0.8964168375E-01      0.2174793243E+00
          0                 6           1             4    7     1       0.1928263380E-04       4    8    1         0.1137028426E-02      0.2759527166E-02

    ------------------------------------------------
       NWT REQUIRED            6 OUTER ITERATIONS 
       AND A TOTAL OF         11 INNER ITERATIONS.
    ------------------------------------------------

 NO OUTPUT CONTROL FOR STRESS PERIOD   19   TIME STEP   26
 
 SOLVING FOR HEAD 
                                                   Max.-Head-Change                         Max.-Flux-Residual
  Residual-Control   Outer-Iter.   Inner-Iter.     Column Row Layer    Maximum-Head-Change  Column Row Layer    Maximum-Flux-Residual          L2-NORM 
          0                 1           2             5    8     1       0.1133309164E-01       5    8    1         0.6080084387E+00      0.1549238971E+01
          0                 2           2             4    7     1      -0.1689793257E-01       5    8    1        -0.9189017129E+00      0.2257352570E+01
          0                 3           2             4    7     1      -0.3661249430E-01       4    7    1        -0.1965112920E+01      0.4835190125E+01
          0                 4           2             4    7     1       0.3925265644E-01       4    7    1         0.2165682328E+01      0.5304708255E+01
          0                 5           2             4    7     1      -0.1562456895E-02       4    8    1        -0.8938303372E-01      0.2173541096E+00
          0                 6           1             4    7     1       0.1928005866E-04       4    8    1         0.1133688635E-02      0.2757789025E-02

    ------------------------------------------------
       NWT REQUIRED            6 OUTER ITERATIONS 
       AND A TOTAL OF         11 INNER ITERATIONS.
    ------------------------------------------------

 NO OUTPUT CONTROL FOR STRESS PERIOD   19   TIME STEP   27
 
 SOLVING FOR HEAD 
                                                   Max.-Head-Change                         Max.-Flux-Residual
  Residual-Control   Outer-Iter.   Inner-Iter.     Column Row Layer    Maximum-Head-Change  Column Row Layer    Maximum-Flux-Residual          L2-NORM 
          0                 1           2             5    8     1       0.1143754987E-01       5    8    1         0.6136706693E+00      0.1562421162E+01
          0                 2           2             4    7     1      -0.1691018479E-01       5    8    1        -0.9196002043E+00      0.2259116329E+01
          0                 3           2             4    7     1      -0.3660757857E-01       4    7    1        -0.1964848767E+01      0.4834548009E+01
          0                 4           2             4    7     1       0.3924987287E-01       4    7    1         0.2165531572E+01      0.5304237292E+01
          0                 5           2             4    7     1      -0.1562290922E-02       4    8    1        -0.8913245911E-01      0.2172343071E+00
          0                 6           1             4    7     1       0.1927801090E-04       4    8    1         0.1130452621E-02      0.2756884382E-02

    ------------------------------------------------
       NWT REQUIRED            6 OUTER ITERATIONS 
       AND A TOTAL OF         11 INNER ITERATIONS.
    ------------------------------------------------

 NO OUTPUT CONTROL FOR STRESS PERIOD   19   TIME STEP   28
 
 SOLVING FOR HEAD 
                                                   Max.-Head-Change                         Max.-Flux-Residual
  Residual-Control   Outer-Iter.   Inner-Iter.     Column Row Layer    Maximum-Head-Change  Column Row Layer    Maximum-Flux-Residual          L2-NORM 
          0                 1           2             5    8     1       0.1153748522E-01       5    8    1         0.6191037161E+00      0.1564978968E+01
          0                 2           2             4    7     1      -0.1692168271E-01       5    8    1        -0.9202384641E+00      0.2260233902E+01
          0                 3           2             4    7     1      -0.3660385949E-01       4    7    1        -0.1964648803E+01      0.4831624510E+01
          0                 4           2             4    7     1       0.3731212514E-01       4    7    1         0.2058623616E+01      0.5042270929E+01
          0                 5           2             4    7     1      -0.1485098684E-02       4    8    1        -0.8445637611E-01      0.2063968889E+00
          0                 6           1             4    7     1       0.1832549131E-04       4    8    1         0.1071110878E-02      0.2619428484E-02

    ------------------------------------------------
       NWT REQUIRED            6 OUTER ITERATIONS 
       AND A TOTAL OF         11 INNER ITERATIONS.
    ------------------------------------------------

 NO OUTPUT CONTROL FOR STRESS PERIOD   19   TIME STEP   29
 
 SOLVING FOR HEAD 
                                                   Max.-Head-Change                         Max.-Flux-Residual
  Residual-Control   Outer-Iter.   Inner-Iter.     Column Row Layer    Maximum-Head-Change  Column Row Layer    Maximum-Flux-Residual          L2-NORM 
          0                 1           2             5    8     1       0.1168879480E-01       5    8    1         0.6273701390E+00      0.1569680535E+01
          0                 2           2             4    7     1      -0.1892373681E-01       5    8    1        -0.1027947091E+01      0.2524233635E+01
          0                 3           2             4    7     1      -0.3248147300E-01       4    7    1        -0.1743374977E+01      0.4286434340E+01
          0                 4           2             4    7     1       0.3266879302E-01       4    7    1         0.1802425710E+01      0.4415097529E+01
          0                 5           2             4    7     1      -0.1300236764E-02       4    8    1        -0.7373787555E-01      0.1806244358E+00
          0                 6           1             4    7     1       0.1604437509E-04       4    8    1         0.9351762069E-03      0.2293160043E-02

    ------------------------------------------------
       NWT REQUIRED            6 OUTER ITERATIONS 
       AND A TOTAL OF         11 INNER ITERATIONS.
    ------------------------------------------------

 NO OUTPUT CONTROL FOR STRESS PERIOD   19   TIME STEP   30



 STREAM LISTING     PERIOD     19   STEP       30

 LAYER ROW COL. STREAM  RCH.  FLOW INTO     FLOW TO   FLOW OUT OF   OVRLND.     DIRECT     STREAM       STREAM     STREAM     STREAM   STREAMBED  STREAMBED
                SEG.NO.  NO.  STRM. RCH.    AQUIFER    STRM. RCH.    RUNOFF     PRECIP       ET          HEAD       DEPTH      WIDTH   CONDCTNC.   GRADIENT

   1    1    1     1     1    2.0250E+01  2.2212E-01   2.0028E+01  0.000E+00  0.000E+00  0.000E+00  1.09415E+03  1.102E+00  1.203E+01  5.414E-02  1.367E+00
   1    2    2     1     2    2.0028E+01  3.4298E-01   1.9685E+01  0.000E+00  0.000E+00  0.000E+00  1.08916E+03  1.098E+00  1.196E+01  8.370E-02  1.366E+00
   1    3    3     1     3    1.9685E+01  2.9127E-01   1.9394E+01  0.000E+00  0.000E+00  0.000E+00  1.08351E+03  1.093E+00  1.186E+01  7.117E-02  1.364E+00
   1    3    4     1     4    1.9394E+01  2.6721E-01   1.9127E+01  0.000E+00  0.000E+00  0.000E+00  1.07850E+03  1.088E+00  1.178E+01  6.536E-02  1.363E+00
   1    4    5     2     1    1.7127E+01  3.0866E-01   1.6818E+01  0.000E+00  0.000E+00  0.000E+00  1.07289E+03  9.572E-01  1.200E+01  7.800E-02  1.319E+00
   1    5    6     2     2    1.6818E+01  2.3687E-01   1.6581E+01  0.000E+00  0.000E+00  0.000E+00  1.06746E+03  9.479E-01  1.200E+01  6.000E-02  1.316E+00
   1    6    6     2     3    1.6581E+01  2.3639E-01   1.6345E+01  0.000E+00  0.000E+00  0.000E+00  1.06273E+03  9.398E-01  1.200E+01  6.000E-02  1.313E+00
   1    7    6     2     4    1.6345E+01  2.3590E-01   1.6109E+01  0.000E+00  0.000E+00  0.000E+00  1.05801E+03  9.317E-01  1.200E+01  6.000E-02  1.311E+00
   1    8    6     2     5    1.6109E+01  2.3541E-01   1.5873E+01  0.000E+00  0.000E+00  0.000E+00  1.05328E+03  9.236E-01  1.200E+01  6.000E-02  1.308E+00
   1    3    5     3     1    2.0000E+00  2.8252E-01   1.7175E+00  0.000E+00  0.000E+00  0.000E+00  1.07555E+03  1.909E+00  9.636E+00  7.227E-02  1.955E+00
   1    3    6     3     2    1.7175E+00  2.4905E-01   1.4684E+00  0.000E+00  0.000E+00  0.000E+00  1.07264E+03  1.727E+00  8.909E+00  6.682E-02  1.864E+00
   1    3    7     3     3    1.4684E+00  1.9718E-01   1.2712E+00  0.000E+00  0.000E+00  0.000E+00  1.06987E+03  1.555E+00  8.218E+00  5.547E-02  1.777E+00
   1    4    8     3     4    1.2712E+00  2.2567E-01   1.0456E+00  0.000E+00  0.000E+00  0.000E+00  1.06682E+03  1.364E+00  7.455E+00  6.709E-02  1.682E+00
   1    5    8     3     5    1.0456E+00  1.5790E-01   8.8768E-01  0.000E+00  0.000E+00  0.000E+00  1.06362E+03  1.164E+00  6.655E+00  4.991E-02  1.582E+00
   1    6    8     3     6    8.8768E-01  5.5980E-02   8.3170E-01  0.000E+00  0.000E+00  0.000E+00  1.06158E+03  1.036E+00  6.145E+00  1.844E-02  1.518E+00
   1    5   10     4     1    1.0000E+01  9.0919E-02   9.9091E+00  0.000E+00  0.000E+00  0.000E+00  1.07836E+03  6.368E-01  1.000E+01  2.500E-02  1.212E+00
   1    5    9     4     2    9.9091E+00  1.8158E-01   9.7275E+00  0.000E+00  0.000E+00  0.000E+00  1.07154E+03  6.315E-01  1.000E+01  5.000E-02  1.211E+00
   1    6    8     4     3    9.7275E+00  1.2689E-01   9.6006E+00  0.000E+00  0.000E+00  0.000E+00  1.06381E+03  6.256E-01  1.000E+01  3.500E-02  1.209E+00
   1    6    8     5     1    1.0432E+01  2.2686E-01   1.0205E+01  0.000E+00  0.000E+00  0.000E+00  1.05868E+03  6.790E-01  1.542E+01  6.166E-02  1.226E+00
   1    7    7     5     2    1.0205E+01  2.7894E-01   9.9265E+00  0.000E+00  0.000E+00  0.000E+00  1.05417E+03  6.732E-01  1.519E+01  7.594E-02  1.224E+00
   1    8    7     5     3    9.9265E+00  1.9221E-01   9.7343E+00  0.000E+00  0.000E+00  0.000E+00  1.04992E+03  6.676E-01  1.497E+01  5.241E-02  1.223E+00
   1    8    6     5     4    9.7343E+00  1.3577E-01   9.5985E+00  0.000E+00  0.000E+00  0.000E+00  1.04691E+03  6.637E-01  1.482E+01  3.706E-02  1.221E+00
   1    9    6     6     1    9.5985E+00  2.2097E-01   9.3776E+00  0.000E+00  0.000E+00  0.000E+00  1.04341E+03  6.828E-01  1.200E+01  6.000E-02  1.228E+00
   1   10    7     6     2    9.3776E+00  2.2039E-01   9.1572E+00  0.000E+00  0.000E+00  0.000E+00  1.03885E+03  6.732E-01  1.200E+01  6.000E-02  1.224E+00
   1   11    7     6     3    9.1572E+00  2.1981E-01   8.9374E+00  0.000E+00  0.000E+00  0.000E+00  1.03430E+03  6.636E-01  1.200E+01  6.000E-02  1.221E+00
   1   12    7     6     4    8.9374E+00  2.1923E-01   8.7181E+00  0.000E+00  0.000E+00  0.000E+00  1.02974E+03  6.539E-01  1.200E+01  6.000E-02  1.218E+00
   1   13    7     6     5    8.7181E+00 -3.1091E-02   8.7492E+00  0.000E+00  0.000E+00  0.000E+00  1.02656E+03  6.497E-01  1.200E+01  2.400E-01 -4.318E-02
   1   14    9     7     1    1.5000E+02  1.3736E+00   1.4863E+02  0.000E+00  0.000E+00  0.000E+00  1.03987E+03  2.288E+00  5.529E+01  5.593E-01  8.186E-01
   1   13    8     7     2    1.4863E+02  1.9526E+00   1.4667E+02  0.000E+00  0.000E+00  0.000E+00  1.03478E+03  2.279E+00  5.525E+01  6.147E-01  1.059E+00
   1   13    7     7     3    1.4667E+02  1.6752E+00   1.4500E+02  0.000E+00  0.000E+00  0.000E+00  1.02969E+03  2.269E+00  5.521E+01  5.584E-01  1.000E+00
   1   13    6     8     1    1.5375E+02  1.0325E+00   1.5272E+02  0.000E+00  0.000E+00  0.000E+00  1.02471E+03  2.839E+00  4.117E+01  4.196E-01  8.203E-01
   1   13    5     8     2    1.5272E+02  2.9574E-01   1.5242E+02  0.000E+00  0.000E+00  0.000E+00  1.01846E+03  2.835E+00  4.110E+01  4.189E-01  2.353E-01
   1   13    4     8     3    1.5242E+02 -2.0012E+00   1.5442E+02  0.000E+00  0.000E+00  0.000E+00  1.01222E+03  2.841E+00  4.119E+01  4.198E+00 -1.589E-01
   1   13    3     8     4    1.5442E+02 -3.4452E+00   1.5787E+02  0.000E+00  0.000E+00  0.000E+00  1.00598E+03  2.860E+00  4.146E+01  4.225E+00 -2.718E-01
   1   13    2     8     5    1.5787E+02 -2.5627E+00   1.6043E+02  0.000E+00  0.000E+00  0.000E+00  9.99755E+02  2.880E+00  4.176E+01  4.256E+00 -2.007E-01
   1   13    1     8     6    1.6043E+02 -2.0105E+00   1.6244E+02  0.000E+00  0.000E+00  0.000E+00  9.94771E+02  2.896E+00  4.198E+01  2.567E+00 -2.611E-01
   1    8    6     9     1    1.5873E+01  0.0000E+00   1.5873E+01  0.000E+00  0.000E+00  0.000E+00  1.08174E+03  2.990E+00  4.000E+00  0.000E+00  1.997E+00
   1    8    5     9     2    1.5873E+01  0.0000E+00   1.5873E+01  0.000E+00  0.000E+00  0.000E+00  1.08124E+03  2.990E+00  4.000E+00  0.000E+00  1.997E+00





UNSATURATED ZONE PACKAGE VOLUMETRIC BUDGET FOR  TIME STEP    30 STRESS PERIOD   19
  ------------------------------------------------------------------------------



     CUMULATIVE VOLUMES      L**3       RATES FOR THIS TIME STEP      L**3/T
     ------------------                 ------------------------

           IN:                                      IN:
           ---                                      ---
        INFILTRATION =   772609862.1546          INFILTRATION =          23.3170

          OUT:                                     OUT:
          ----                                     ----
              UZF ET =   534038329.3179                UZF ET =          23.3175
        UZF RECHARGE =       73224.0000          UZF RECHARGE =       0.0000E+00

            IN - OUT =   238498308.8367              IN - OUT =      -4.6921E-04

          STORAGE:                                 STORAGE:
          --------                                 --------
      STORAGE CHANGE =   238498655.6535        STORAGE CHANGE =      -4.7109E-04

 PERCENT DISCREPANCY IS DIFFERENCE BETWEEN IN-OUT MINUS CHANGE IN STORAGE
 DIVIDED BY THE AVERAGE OF IN AND OUT TIMES 100

 PERCENT DISCREPANCY =          -0.00     PERCENT DISCREPANCY =           0.00






1
  VOLUMETRIC BUDGET FOR AGRICULTURAL FIELDS AT  END OF TIME STEP   30, STRESS PERIOD  19
  ------------------------------------------------------------------------------

     CUMULATIVE VOLUMES      L**3       RATES FOR THIS TIME STEP      L**3/T
     ------------------                 ------------------------

           IN:                                      IN:
           ---                                      ---
               AG WELLS  =   444167840.0000                 AG WELLS  =           6.5957
      DIVERSION SEGMENTS =   288302816.0000        DIVERSION SEGMENTS =          15.8735
       IRRIGATION PONDS  =           0.0000         IRRIGATION PONDS  =           0.0000
           GW IRRIGATION =           0.0000             GW IRRIGATION =           0.0000
           SW IRRIGATION =           0.0000             SW IRRIGATION =           0.0000
        SYSTEM LOSSES GW =           0.0000          SYSTEM LOSSES GW =           0.0000
        SYSTEM LOSSES SW =           0.0000          SYSTEM LOSSES SW =           0.0000

                TOTAL IN =   732470656.0000                  TOTAL IN =          22.4692

          OUT:                                     OUT:
          ----                                     ----
               AG WELLS  =           0.0000                 AG WELLS  =           0.0000
      DIVERSION SEGMENTS =           0.0000        DIVERSION SEGMENTS =           0.0000
       IRRIGATION PONDS  =           0.0000         IRRIGATION PONDS  =           0.0000
           GW IRRIGATION =   444167840.0000             GW IRRIGATION =           6.5957
           SW IRRIGATION =   288308512.0000             SW IRRIGATION =          15.8738
        SYSTEM LOSSES GW =           0.0000          SYSTEM LOSSES GW =           0.0000
        SYSTEM LOSSES SW =           0.0000          SYSTEM LOSSES SW =           0.0000

               TOTAL OUT =   732476352.0000                 TOTAL OUT =          22.4695

                IN - OUT =       -5696.0000                  IN - OUT =      -3.1662E-04

     PERCENT DISCREPANCY =          -0.00         PERCENT DISCREPANCY =          -0.00



1
  VOLUMETRIC BUDGET FOR ENTIRE MODEL AT END OF TIME STEP   30, STRESS PERIOD  19
  ------------------------------------------------------------------------------

     CUMULATIVE VOLUMES      L**3       RATES FOR THIS TIME STEP      L**3/T
     ------------------                 ------------------------

           IN:                                      IN:
           ---                                      ---
             STORAGE     =   733772608.0000               STORAGE     =           5.6365
       CONSTANT HEAD     =           0.0000         CONSTANT HEAD     =           0.0000
     HEAD DEP BOUNDS     =    13659496.0000       HEAD DEP BOUNDS     =           0.2883
      STREAM LEAKAGE     =   560761344.0000        STREAM LEAKAGE     =          11.9883
        UZF RECHARGE     =       73223.9531          UZF RECHARGE     =           0.0000
               GW ET     =           0.0000                 GW ET     =           0.0000
     SURFACE LEAKAGE     =           0.0000       SURFACE LEAKAGE     =           0.0000
           AG WELLS      =           0.0000             AG WELLS      =           0.0000

                TOTAL IN =  1308266752.0000                  TOTAL IN =          17.9131

          OUT:                                     OUT:
          ----                                     ----
             STORAGE     =   367660128.0000               STORAGE     =           0.9795
       CONSTANT HEAD     =           0.0000         CONSTANT HEAD     =           0.0000
     HEAD DEP BOUNDS     =    13667672.0000       HEAD DEP BOUNDS     =           0.2870
      STREAM LEAKAGE     =   482776480.0000        STREAM LEAKAGE     =          10.0507
        UZF RECHARGE     =           0.0000          UZF RECHARGE     =           0.0000
               GW ET     =           0.0000                 GW ET     =           0.0000
     SURFACE LEAKAGE     =           0.0000       SURFACE LEAKAGE     =           0.0000
           AG WELLS      =   444167840.0000             AG WELLS      =           6.5957

               TOTAL OUT =  1308272128.0000                 TOTAL OUT =          17.9130

                IN - OUT =       -5376.0000                  IN - OUT =       8.5831E-05

     PERCENT DISCREPANCY =          -0.00         PERCENT DISCREPANCY =           0.00






         TIME SUMMARY AT END OF TIME STEP   30 IN STRESS PERIOD   19
                    SECONDS     MINUTES      HOURS       DAYS        YEARS
                    -----------------------------------------------------------
   TIME STEP LENGTH  87667.      1461.1      24.352      1.0147     2.77799E-03
 STRESS PERIOD TIME 2.63000E+06  43833.      730.56      30.440     8.33397E-02
         TOTAL TIME 4.74265E+07 7.90442E+05  13174.      548.92      1.5029    
1
1
                            STRESS PERIOD NO.   20, LENGTH =   2630000.    
                            -----------------------------------------------

                              NUMBER OF TIME STEPS =    30

                               MULTIPLIER FOR DELT =     1.000

                            INITIAL TIME STEP SIZE =   87666.66    

 REUSING NON-PARAMETER GHB CELLS FROM LAST STRESS PERIOD

      2 GHB CELLS

 REUSING STREAM SEGMENT DATA FROM LAST STRESS PERIOD



            AREAL INFILTRATION RATE
 READING ON UNIT   19 WITH FORMAT: (FREE)              

            1           2           3           4           5           6           7           8           9          10
 ........................................................................................................................
   1   1.0000E-10  2.0000E-10   0.000       0.000       0.000       0.000       0.000       0.000       0.000       0.000    
   2   2.0000E-10  1.0000E-10  2.0000E-10   0.000       0.000      8.0000E-10  8.0000E-10  5.0000E-10   0.000       0.000    
   3    0.000      5.0000E-10  1.0000E-10  1.0000E-10  8.0000E-10  8.0000E-10  5.0000E-10  5.0000E-10   0.000       0.000    
   4   8.0000E-10  5.0000E-10  1.0000E-10  1.0000E-10  1.0000E-10  1.0000E-10  1.0000E-10  1.0000E-10  2.0000E-10   0.000    
   5   8.0000E-10  5.0000E-10  1.0000E-10  1.0000E-10  1.0000E-10  1.0000E-10  1.0000E-10  1.0000E-10  1.0000E-10  1.0000E-10
   6   8.0000E-10  5.0000E-10  5.0000E-10  2.0000E-10  2.0000E-10  1.0000E-10  1.0000E-10  1.0000E-10  1.0000E-10  5.0000E-10
   7   8.0000E-10  5.0000E-10  5.0000E-10  2.0000E-10  2.0000E-10  1.0000E-10  1.0000E-10  2.0000E-10  2.0000E-10   0.000    
   8    0.000      5.0000E-10  5.0000E-10  2.0000E-10  2.0000E-10  1.0000E-10  1.0000E-10  2.0000E-10  5.0000E-10   0.000    
   9    0.000      5.0000E-10  5.0000E-10  2.0000E-10  2.0000E-10  1.0000E-10  1.0000E-10  2.0000E-10  5.0000E-10   0.000    
  10    0.000      5.0000E-10  5.0000E-10  2.0000E-10  2.0000E-10  1.0000E-10  1.0000E-10  2.0000E-10  5.0000E-10  8.0000E-10
  11    0.000      1.0000E-10  1.0000E-10  1.0000E-10  1.0000E-10  1.0000E-10  1.0000E-10  2.0000E-10  5.0000E-10   0.000    
  12   1.0000E-10  1.0000E-10  1.0000E-10  1.0000E-10  1.0000E-10  1.0000E-10  1.0000E-10  1.0000E-10  2.0000E-10   0.000    
  13   1.0000E-10  1.0000E-10  2.0000E-10  2.0000E-10  2.0000E-10  2.0000E-10  2.0000E-10  1.0000E-10  1.0000E-10   0.000    
  14    0.000      2.0000E-10  5.0000E-10  5.0000E-10  5.0000E-10  5.0000E-10  5.0000E-10  2.0000E-10  1.0000E-10   0.000    
  15    0.000       0.000      8.0000E-10  8.0000E-10  8.0000E-10  8.0000E-10   0.000       0.000       0.000       0.000    

                  ET RATE =  4.000000E-07

 USING ET EXTINCTION DEPTH FROM PREVIOUS STRESS PERIOD. CURRENT PERIOD IS:      20

 USING EXTINCTION WATER CONTENT FROM PREVIOUS STRESS PERIOD. CURRENT PERIOD IS:      20

 USING AIR ENTRY PRESSURE FROM PREVIOUS STRESS PERIOD. CURRENT PERIOD IS:      20

 USING ROOT PRESSURE HEAD FROM PREVIOUS STRESS PERIOD. CURRENT PERIOD IS:      20

 USING ROOT ACTIVITY FROM PREVIOUS STRESS PERIOD. CURRENT PERIOD IS:      20

 PROCESSING AG STRESS PERIOD DATA

 READING AG STRESS PERIOD DATA

 READING IRRIGATION SEGMENT

 READING IRRIGATION WELL

 READING SUPPLEMENTAL WELL

 NO IRRPOND OR REUSING IRRPOND DATA FROM LAST STRESS PERIOD

 END PROCESSING AG STRESS PERIOD DATA OPTIONS
 
 SOLVING FOR HEAD 
                                                   Max.-Head-Change                         Max.-Flux-Residual
  Residual-Control   Outer-Iter.   Inner-Iter.     Column Row Layer    Maximum-Head-Change  Column Row Layer    Maximum-Flux-Residual          L2-NORM 
          0                 1           2             5    8     1       0.1190308693E-01       5    8    1         0.6390884737E+00      0.1495499060E+01
          0                 2           2             4    7     1      -0.2748985881E+00       5    8    1        -0.1476743571E+02      0.3616004137E+02
          0                 3           2             4    7     1       0.1871712960E-01       5    6    1         0.1033574171E+01      0.2527405133E+01
          0                 4           2             4    7     1      -0.7447743548E-03       5    8    1        -0.4227342263E-01      0.1033713931E+00
          0                 5           1             4    7     1       0.9183387225E-05       5    8    1         0.5357333739E-03      0.1311614269E-02

    ------------------------------------------------
       NWT REQUIRED            5 OUTER ITERATIONS 
       AND A TOTAL OF          9 INNER ITERATIONS.
    ------------------------------------------------

 OUTPUT CONTROL FOR STRESS PERIOD   20   TIME STEP    1
    PRINT BUDGET
    SAVE BUDGET
    SAVE BUDGET
    SAVE HEAD FOR ALL LAYERS
 UBDSV1 SAVING "         STORAGE" ON UNIT 102 AT TIME STEP 1, STRESS PERIOD 20
 UBDSV2 SAVING "   CONSTANT HEAD" ON UNIT 102 AT TIME STEP 1, STRESS PERIOD 20
 UBDSV1 SAVING "FLOW RIGHT FACE " ON UNIT 102 AT TIME STEP 1, STRESS PERIOD 20
 UBDSV1 SAVING "FLOW FRONT FACE " ON UNIT 102 AT TIME STEP 1, STRESS PERIOD 20

  HEAD DEP BOUNDS   PERIOD   20   STEP     1
 BOUNDARY      1   LAYER   1   ROW    13   COL     1   RATE   -0.287010    
 BOUNDARY      2   LAYER   1   ROW    14   COL     9   RATE    0.288333    



 STREAM LISTING     PERIOD     20   STEP        1

 LAYER ROW COL. STREAM  RCH.  FLOW INTO     FLOW TO   FLOW OUT OF   OVRLND.     DIRECT     STREAM       STREAM     STREAM     STREAM   STREAMBED  STREAMBED
                SEG.NO.  NO.  STRM. RCH.    AQUIFER    STRM. RCH.    RUNOFF     PRECIP       ET          HEAD       DEPTH      WIDTH   CONDCTNC.   GRADIENT

   1    1    1     1     1    2.0250E+01  2.2212E-01   2.0028E+01  0.000E+00  0.000E+00  0.000E+00  1.09415E+03  1.102E+00  1.203E+01  5.414E-02  1.367E+00
   1    2    2     1     2    2.0028E+01  3.4298E-01   1.9685E+01  0.000E+00  0.000E+00  0.000E+00  1.08916E+03  1.098E+00  1.196E+01  8.370E-02  1.366E+00
   1    3    3     1     3    1.9685E+01  2.9127E-01   1.9394E+01  0.000E+00  0.000E+00  0.000E+00  1.08351E+03  1.093E+00  1.186E+01  7.117E-02  1.364E+00
   1    3    4     1     4    1.9394E+01  2.6721E-01   1.9127E+01  0.000E+00  0.000E+00  0.000E+00  1.07850E+03  1.088E+00  1.178E+01  6.536E-02  1.363E+00
   1    4    5     2     1    1.7127E+01  3.0866E-01   1.6818E+01  0.000E+00  0.000E+00  0.000E+00  1.07289E+03  9.572E-01  1.200E+01  7.800E-02  1.319E+00
   1    5    6     2     2    1.6818E+01  2.3687E-01   1.6581E+01  0.000E+00  0.000E+00  0.000E+00  1.06746E+03  9.479E-01  1.200E+01  6.000E-02  1.316E+00
   1    6    6     2     3    1.6581E+01  2.3639E-01   1.6345E+01  0.000E+00  0.000E+00  0.000E+00  1.06273E+03  9.398E-01  1.200E+01  6.000E-02  1.313E+00
   1    7    6     2     4    1.6345E+01  2.3590E-01   1.6109E+01  0.000E+00  0.000E+00  0.000E+00  1.05801E+03  9.317E-01  1.200E+01  6.000E-02  1.311E+00
   1    8    6     2     5    1.6109E+01  2.3541E-01   1.5873E+01  0.000E+00  0.000E+00  0.000E+00  1.05328E+03  9.236E-01  1.200E+01  6.000E-02  1.308E+00
   1    3    5     3     1    2.0000E+00  2.8252E-01   1.7175E+00  0.000E+00  0.000E+00  0.000E+00  1.07555E+03  1.909E+00  9.636E+00  7.227E-02  1.955E+00
   1    3    6     3     2    1.7175E+00  2.4905E-01   1.4684E+00  0.000E+00  0.000E+00  0.000E+00  1.07264E+03  1.727E+00  8.909E+00  6.682E-02  1.864E+00
   1    3    7     3     3    1.4684E+00  1.9718E-01   1.2712E+00  0.000E+00  0.000E+00  0.000E+00  1.06987E+03  1.555E+00  8.218E+00  5.547E-02  1.777E+00
   1    4    8     3     4    1.2712E+00  2.2567E-01   1.0456E+00  0.000E+00  0.000E+00  0.000E+00  1.06682E+03  1.364E+00  7.455E+00  6.709E-02  1.682E+00
   1    5    8     3     5    1.0456E+00  1.5790E-01   8.8768E-01  0.000E+00  0.000E+00  0.000E+00  1.06362E+03  1.164E+00  6.655E+00  4.991E-02  1.582E+00
   1    6    8     3     6    8.8768E-01  5.5980E-02   8.3170E-01  0.000E+00  0.000E+00  0.000E+00  1.06158E+03  1.036E+00  6.145E+00  1.844E-02  1.518E+00
   1    5   10     4     1    1.0000E+01  9.0919E-02   9.9091E+00  0.000E+00  0.000E+00  0.000E+00  1.07836E+03  6.368E-01  1.000E+01  2.500E-02  1.212E+00
   1    5    9     4     2    9.9091E+00  1.8158E-01   9.7275E+00  0.000E+00  0.000E+00  0.000E+00  1.07154E+03  6.315E-01  1.000E+01  5.000E-02  1.211E+00
   1    6    8     4     3    9.7275E+00  1.2689E-01   9.6006E+00  0.000E+00  0.000E+00  0.000E+00  1.06381E+03  6.256E-01  1.000E+01  3.500E-02  1.209E+00
   1    6    8     5     1    1.0432E+01  2.2686E-01   1.0205E+01  0.000E+00  0.000E+00  0.000E+00  1.05868E+03  6.790E-01  1.542E+01  6.166E-02  1.226E+00
   1    7    7     5     2    1.0205E+01  2.7894E-01   9.9265E+00  0.000E+00  0.000E+00  0.000E+00  1.05417E+03  6.732E-01  1.519E+01  7.594E-02  1.224E+00
   1    8    7     5     3    9.9265E+00  1.9221E-01   9.7343E+00  0.000E+00  0.000E+00  0.000E+00  1.04992E+03  6.676E-01  1.497E+01  5.241E-02  1.223E+00
   1    8    6     5     4    9.7343E+00  1.3577E-01   9.5985E+00  0.000E+00  0.000E+00  0.000E+00  1.04691E+03  6.637E-01  1.482E+01  3.706E-02  1.221E+00
   1    9    6     6     1    9.5985E+00  2.2097E-01   9.3776E+00  0.000E+00  0.000E+00  0.000E+00  1.04341E+03  6.828E-01  1.200E+01  6.000E-02  1.228E+00
   1   10    7     6     2    9.3776E+00  2.2039E-01   9.1572E+00  0.000E+00  0.000E+00  0.000E+00  1.03885E+03  6.732E-01  1.200E+01  6.000E-02  1.224E+00
   1   11    7     6     3    9.1572E+00  2.1981E-01   8.9374E+00  0.000E+00  0.000E+00  0.000E+00  1.03430E+03  6.636E-01  1.200E+01  6.000E-02  1.221E+00
   1   12    7     6     4    8.9374E+00  2.1923E-01   8.7181E+00  0.000E+00  0.000E+00  0.000E+00  1.02974E+03  6.539E-01  1.200E+01  6.000E-02  1.218E+00
   1   13    7     6     5    8.7181E+00 -3.0887E-02   8.7490E+00  0.000E+00  0.000E+00  0.000E+00  1.02656E+03  6.497E-01  1.200E+01  2.400E-01 -4.290E-02
   1   14    9     7     1    1.5000E+02  1.3736E+00   1.4863E+02  0.000E+00  0.000E+00  0.000E+00  1.03987E+03  2.288E+00  5.529E+01  5.593E-01  8.187E-01
   1   13    8     7     2    1.4863E+02  1.9528E+00   1.4667E+02  0.000E+00  0.000E+00  0.000E+00  1.03478E+03  2.279E+00  5.525E+01  6.147E-01  1.059E+00
   1   13    7     7     3    1.4667E+02  1.6757E+00   1.4500E+02  0.000E+00  0.000E+00  0.000E+00  1.02969E+03  2.269E+00  5.521E+01  5.584E-01  1.000E+00
   1   13    6     8     1    1.5375E+02  1.0329E+00   1.5271E+02  0.000E+00  0.000E+00  0.000E+00  1.02471E+03  2.839E+00  4.117E+01  4.196E-01  8.206E-01
   1   13    5     8     2    1.5271E+02  2.9616E-01   1.5242E+02  0.000E+00  0.000E+00  0.000E+00  1.01846E+03  2.835E+00  4.110E+01  4.189E-01  2.357E-01
   1   13    4     8     3    1.5242E+02 -1.9990E+00   1.5442E+02  0.000E+00  0.000E+00  0.000E+00  1.01222E+03  2.841E+00  4.119E+01  4.197E+00 -1.587E-01
   1   13    3     8     4    1.5442E+02 -3.4431E+00   1.5786E+02  0.000E+00  0.000E+00  0.000E+00  1.00598E+03  2.860E+00  4.146E+01  4.225E+00 -2.716E-01
   1   13    2     8     5    1.5786E+02 -2.5604E+00   1.6042E+02  0.000E+00  0.000E+00  0.000E+00  9.99755E+02  2.880E+00  4.176E+01  4.256E+00 -2.006E-01
   1   13    1     8     6    1.6042E+02 -2.0085E+00   1.6243E+02  0.000E+00  0.000E+00  0.000E+00  9.94770E+02  2.895E+00  4.198E+01  2.567E+00 -2.608E-01
   1    8    6     9     1    1.5873E+01  0.0000E+00   1.5873E+01  0.000E+00  0.000E+00  0.000E+00  1.08174E+03  2.990E+00  4.000E+00  0.000E+00  1.997E+00
   1    8    5     9     2    1.5873E+01  0.0000E+00   1.5873E+01  0.000E+00  0.000E+00  0.000E+00  1.08124E+03  2.990E+00  4.000E+00  0.000E+00  1.997E+00



 UBDSV3 SAVING "           GW ET" ON UNIT  61 AT TIME STEP 1, STRESS PERIOD 20
 UBDSV3 SAVING "    UZF RECHARGE" ON UNIT  61 AT TIME STEP 1, STRESS PERIOD 20
 UBDSV3 SAVING " SURFACE LEAKAGE" ON UNIT  61 AT TIME STEP 1, STRESS PERIOD 20
 UBDSV3 SAVING "       HORT+DUNN" ON UNIT  61 AT TIME STEP 1, STRESS PERIOD 20
 UBDSV3 SAVING "  STORAGE CHANGE" ON UNIT  61 AT TIME STEP 1, STRESS PERIOD 20


UNSATURATED ZONE PACKAGE VOLUMETRIC BUDGET FOR  TIME STEP     1 STRESS PERIOD   20
  ------------------------------------------------------------------------------



     CUMULATIVE VOLUMES      L**3       RATES FOR THIS TIME STEP      L**3/T
     ------------------                 ------------------------

           IN:                                      IN:
           ---                                      ---
        INFILTRATION =   781809818.6505          INFILTRATION =         104.9425

          OUT:                                     OUT:
          ----                                     ----
              UZF ET =   539369996.5638                UZF ET =          60.8175
        UZF RECHARGE =       73224.0000          UZF RECHARGE =       0.0000E+00

            IN - OUT =   242366598.0867              IN - OUT =          44.1250

          STORAGE:                                 STORAGE:
          --------                                 --------
      STORAGE CHANGE =   242366944.7922        STORAGE CHANGE =          44.1250

 PERCENT DISCREPANCY IS DIFFERENCE BETWEEN IN-OUT MINUS CHANGE IN STORAGE
 DIVIDED BY THE AVERAGE OF IN AND OUT TIMES 100

 PERCENT DISCREPANCY =          -0.00     PERCENT DISCREPANCY =           0.00






 

            AG WELLS      PERIOD   20   STEP   1
 AG WELL      1   LAYER   1   ROW     6   COL     4   RATE    -14.7035    
 AG WELL      2   LAYER   1   ROW     6   COL     5   RATE    -14.7035    
 AG WELL      3   LAYER   1   ROW     7   COL     4   RATE    -14.7035    
 AG WELL      4   LAYER   1   ROW     7   COL     5   RATE    -14.7035    
 AG WELL      5   LAYER   1   ROW     8   COL     4   RATE    -14.7035    
 AG WELL      6   LAYER   1   ROW     8   COL     5   RATE    -14.7035    
 
 

   DIVERSION SEGMENTS     PERIOD   20   STEP   1
 SEGMENT      9   RATE     15.8735    
 
 

        SW IRRIGATION     PERIOD   20   STEP   1
 SEGMENT      9   ROW     6   COL     4   RATE     2.64564    
 SEGMENT      9   ROW     6   COL     5   RATE     2.64564    
 SEGMENT      9   ROW     7   COL     4   RATE     2.64564    
 SEGMENT      9   ROW     7   COL     5   RATE     2.64564    
 SEGMENT      9   ROW     8   COL     4   RATE     2.64564    
 SEGMENT      9   ROW     8   COL     5   RATE     2.64564    
 
 

        GW IRRIGATION     PERIOD   20   STEP   1
 AG WELL      1   ROW     6   COL     4   RATE     14.7035    
 AG WELL      2   ROW     6   COL     5   RATE     14.7035    
 AG WELL      3   ROW     7   COL     4   RATE     14.7035    
 AG WELL      4   ROW     7   COL     5   RATE     14.7035    
 AG WELL      5   ROW     8   COL     4   RATE     14.7035    
 AG WELL      6   ROW     8   COL     5   RATE     14.7035    
 
1
  VOLUMETRIC BUDGET FOR AGRICULTURAL FIELDS AT  END OF TIME STEP    1, STRESS PERIOD  20
  ------------------------------------------------------------------------------

     CUMULATIVE VOLUMES      L**3       RATES FOR THIS TIME STEP      L**3/T
     ------------------                 ------------------------

           IN:                                      IN:
           ---                                      ---
               AG WELLS  =   451901888.0000                 AG WELLS  =          88.2212
      DIVERSION SEGMENTS =   289694400.0000        DIVERSION SEGMENTS =          15.8735
       IRRIGATION PONDS  =           0.0000         IRRIGATION PONDS  =           0.0000
           GW IRRIGATION =           0.0000             GW IRRIGATION =           0.0000
           SW IRRIGATION =           0.0000             SW IRRIGATION =           0.0000
        SYSTEM LOSSES GW =           0.0000          SYSTEM LOSSES GW =           0.0000
        SYSTEM LOSSES SW =           0.0000          SYSTEM LOSSES SW =           0.0000

                TOTAL IN =   741596288.0000                  TOTAL IN =         104.0947

          OUT:                                     OUT:
          ----                                     ----
               AG WELLS  =           0.0000                 AG WELLS  =           0.0000
      DIVERSION SEGMENTS =           0.0000        DIVERSION SEGMENTS =           0.0000
       IRRIGATION PONDS  =           0.0000         IRRIGATION PONDS  =           0.0000
           GW IRRIGATION =   451901888.0000             GW IRRIGATION =          88.2212
           SW IRRIGATION =   289700128.0000             SW IRRIGATION =          15.8738
        SYSTEM LOSSES GW =           0.0000          SYSTEM LOSSES GW =           0.0000
        SYSTEM LOSSES SW =           0.0000          SYSTEM LOSSES SW =           0.0000

               TOTAL OUT =   741602048.0000                 TOTAL OUT =         104.0950

                IN - OUT =       -5760.0000                  IN - OUT =      -3.2043E-04

     PERCENT DISCREPANCY =          -0.00         PERCENT DISCREPANCY =          -0.00




 HEAD WILL BE SAVED ON UNIT   62 AT END OF TIME STEP    1, STRESS PERIOD   20
1
  VOLUMETRIC BUDGET FOR ENTIRE MODEL AT END OF TIME STEP    1, STRESS PERIOD  20
  ------------------------------------------------------------------------------

     CUMULATIVE VOLUMES      L**3       RATES FOR THIS TIME STEP      L**3/T
     ------------------                 ------------------------

           IN:                                      IN:
           ---                                      ---
             STORAGE     =   741403968.0000               STORAGE     =          87.0499
       CONSTANT HEAD     =           0.0000         CONSTANT HEAD     =           0.0000
     HEAD DEP BOUNDS     =    13684773.0000       HEAD DEP BOUNDS     =           0.2883
      STREAM LEAKAGE     =   561812480.0000        STREAM LEAKAGE     =          11.9899
        UZF RECHARGE     =       73223.9531          UZF RECHARGE     =           0.0000
               GW ET     =           0.0000                 GW ET     =           0.0000
     SURFACE LEAKAGE     =           0.0000       SURFACE LEAKAGE     =           0.0000
           AG WELLS      =           0.0000             AG WELLS      =           0.0000

                TOTAL IN =  1316974464.0000                  TOTAL IN =          99.3281

          OUT:                                     OUT:
          ----                                     ----
             STORAGE     =   367728320.0000               STORAGE     =           0.7780
       CONSTANT HEAD     =           0.0000         CONSTANT HEAD     =           0.0000
     HEAD DEP BOUNDS     =    13692833.0000       HEAD DEP BOUNDS     =           0.2870
      STREAM LEAKAGE     =   483656832.0000        STREAM LEAKAGE     =          10.0419
        UZF RECHARGE     =           0.0000          UZF RECHARGE     =           0.0000
               GW ET     =           0.0000                 GW ET     =           0.0000
     SURFACE LEAKAGE     =           0.0000       SURFACE LEAKAGE     =           0.0000
           AG WELLS      =   451901888.0000             AG WELLS      =          88.2212

               TOTAL OUT =  1316979968.0000                 TOTAL OUT =          99.3281

                IN - OUT =       -5504.0000                  IN - OUT =       4.5776E-05

     PERCENT DISCREPANCY =          -0.00         PERCENT DISCREPANCY =           0.00






         TIME SUMMARY AT END OF TIME STEP    1 IN STRESS PERIOD   20
                    SECONDS     MINUTES      HOURS       DAYS        YEARS
                    -----------------------------------------------------------
   TIME STEP LENGTH  87667.      1461.1      24.352      1.0147     2.77799E-03
 STRESS PERIOD TIME  87667.      1461.1      24.352      1.0147     2.77799E-03
         TOTAL TIME 4.75142E+07 7.91903E+05  13198.      549.93      1.5056    
1
 
 SOLVING FOR HEAD 
                                                   Max.-Head-Change                         Max.-Flux-Residual
  Residual-Control   Outer-Iter.   Inner-Iter.     Column Row Layer    Maximum-Head-Change  Column Row Layer    Maximum-Flux-Residual          L2-NORM 
          0                 1           2             5    8     1       0.1922308666E-01       5    8    1         0.1042073326E+01      0.2280263241E+01
          0                 2           2             4    7     1      -0.5105621332E-01       5    8    1        -0.2785594197E+01      0.6812048644E+01
          0                 3           2             4    7     1      -0.4400607543E+00       4    7    1        -0.2361902427E+02      0.5784999442E+02
          0                 4           2             4    7     1       0.2996969748E-01       5    8    1         0.1668266787E+01      0.4055721285E+01
          0                 5           2             4    7     1      -0.1192810356E-02       5    8    1        -0.6822377682E-01      0.1659128128E+00
          0                 6           1             4    7     1       0.1471877969E-04       5    8    1         0.8635564964E-03      0.2112023950E-02

    ------------------------------------------------
       NWT REQUIRED            6 OUTER ITERATIONS 
       AND A TOTAL OF         11 INNER ITERATIONS.
    ------------------------------------------------

 NO OUTPUT CONTROL FOR STRESS PERIOD   20   TIME STEP    2
 
 SOLVING FOR HEAD 
                                                   Max.-Head-Change                         Max.-Flux-Residual
  Residual-Control   Outer-Iter.   Inner-Iter.     Column Row Layer    Maximum-Head-Change  Column Row Layer    Maximum-Flux-Residual          L2-NORM 
          0                 1           2             5    8     1       0.3248443028E-01       5    8    1         0.1774405546E+01      0.3719982851E+01
          0                 2           2             5    8     1      -0.3300097158E-01       5    8    1        -0.1820458259E+01      0.4375940762E+01
          0                 3           2             4    7     1      -0.1644182011E-01       4    7    1        -0.8826114900E+00      0.2161830816E+01
          0                 4           2             4    7     1       0.1759951458E-01       4    7    1         0.9710170976E+00      0.2377995994E+01
          0                 5           2             4    7     1      -0.1773606726E-01       4    7    1        -0.1005816694E+01      0.2463723647E+01
          0                 6           2             4    7     1      -0.2930568255E-02       4    7    1        -0.1661903107E+00      0.4070683671E+00
          0                 7           1             4    7     1       0.3619046539E-04       5    8    1         0.2111686472E-02      0.5173669404E-02

    ------------------------------------------------
       NWT REQUIRED            7 OUTER ITERATIONS 
       AND A TOTAL OF         13 INNER ITERATIONS.
    ------------------------------------------------

 NO OUTPUT CONTROL FOR STRESS PERIOD   20   TIME STEP    3
 
 SOLVING FOR HEAD 
                                                   Max.-Head-Change                         Max.-Flux-Residual
  Residual-Control   Outer-Iter.   Inner-Iter.     Column Row Layer    Maximum-Head-Change  Column Row Layer    Maximum-Flux-Residual          L2-NORM 
          0                 1           2             5    8     1       0.3248980464E-01       5    8    1         0.1773699645E+01      0.3747511320E+01
          0                 2           2             4    7     1      -0.1170610880E+00       5    8    1        -0.6383718073E+01      0.1554659319E+02
          0                 3           2             4    7     1      -0.6229850825E-01       4    7    1        -0.3343816392E+01      0.8180699599E+01
          0                 4           2             4    7     1       0.4242881081E-02       4    7    1         0.2340954437E+00      0.5726727208E+00
          0                 5           2             4    7     1      -0.1688683491E-03       4    7    1        -0.9576423940E-02      0.2342794035E-01
          0                 6           1             4    7     1       0.2083765764E-05       4    7    1         0.1214277545E-03      0.2986035785E-03

    ------------------------------------------------
       NWT REQUIRED            6 OUTER ITERATIONS 
       AND A TOTAL OF         11 INNER ITERATIONS.
    ------------------------------------------------

 NO OUTPUT CONTROL FOR STRESS PERIOD   20   TIME STEP    4
 
 SOLVING FOR HEAD 
                                                   Max.-Head-Change                         Max.-Flux-Residual
  Residual-Control   Outer-Iter.   Inner-Iter.     Column Row Layer    Maximum-Head-Change  Column Row Layer    Maximum-Flux-Residual          L2-NORM 
          0                 1           2             5    8     1       0.3633998975E-01       5    8    1         0.1985192688E+01      0.4199347368E+01
          0                 2           2             4    7     1      -0.1119193252E+00       5    8    1        -0.6122102274E+01      0.1489160948E+02
          0                 3           2             5    8     1       0.1545398108E-02       5    8    1         0.8771189386E-01      0.2130031573E+00
          0                 4           1             5    8     1      -0.6149284730E-04       5    8    1        -0.3591595739E-02      0.8797189988E-02

    ------------------------------------------------
       NWT REQUIRED            4 OUTER ITERATIONS 
       AND A TOTAL OF          7 INNER ITERATIONS.
    ------------------------------------------------

 NO OUTPUT CONTROL FOR STRESS PERIOD   20   TIME STEP    5
 
 SOLVING FOR HEAD 
                                                   Max.-Head-Change                         Max.-Flux-Residual
  Residual-Control   Outer-Iter.   Inner-Iter.     Column Row Layer    Maximum-Head-Change  Column Row Layer    Maximum-Flux-Residual          L2-NORM 
          0                 1           2             5    8     1       0.3797935405E-01       5    8    1         0.2074572826E+01      0.4410848427E+01
          0                 2           2             4    7     1      -0.1226497396E+00       5    8    1        -0.6701906299E+01      0.1630684258E+02
          0                 3           2             4    7     1      -0.8425876958E-02       4    7    1        -0.4524030611E+00      0.1097441569E+01
          0                 4           2             4    7     1       0.5738524755E-03       4    7    1         0.3167196785E-01      0.7678097845E-01
          0                 5           1             4    7     1      -0.2283954412E-04       4    7    1        -0.1295619445E-02      0.3141672412E-02

    ------------------------------------------------
       NWT REQUIRED            5 OUTER ITERATIONS 
       AND A TOTAL OF          9 INNER ITERATIONS.
    ------------------------------------------------

 NO OUTPUT CONTROL FOR STRESS PERIOD   20   TIME STEP    6
 
 SOLVING FOR HEAD 
                                                   Max.-Head-Change                         Max.-Flux-Residual
  Residual-Control   Outer-Iter.   Inner-Iter.     Column Row Layer    Maximum-Head-Change  Column Row Layer    Maximum-Flux-Residual          L2-NORM 
          0                 1           2             5    8     1       0.4015859143E-01       5    8    1         0.2193723029E+01      0.4683608275E+01
          0                 2           2             4    7     1      -0.1230439019E+00       5    8    1        -0.6729269276E+01      0.1636781112E+02
          0                 3           2             4    7     1      -0.4820523752E-02       4    7    1        -0.2589060404E+00      0.6238132305E+00
          0                 4           2             4    7     1       0.3283065149E-03       4    7    1         0.1812540414E-01      0.4359221229E-01
          0                 5           1             4    7     1      -0.1306672217E-04       4    7    1        -0.7414472598E-03      0.1784180265E-02

    ------------------------------------------------
       NWT REQUIRED            5 OUTER ITERATIONS 
       AND A TOTAL OF          9 INNER ITERATIONS.
    ------------------------------------------------

 NO OUTPUT CONTROL FOR STRESS PERIOD   20   TIME STEP    7
 
 SOLVING FOR HEAD 
                                                   Max.-Head-Change                         Max.-Flux-Residual
  Residual-Control   Outer-Iter.   Inner-Iter.     Column Row Layer    Maximum-Head-Change  Column Row Layer    Maximum-Flux-Residual          L2-NORM 
          0                 1           2             5    8     1       0.4213669858E-01       5    8    1         0.2301732467E+01      0.4935633844E+01
          0                 2           2             4    7     1      -0.1244013200E+00       5    8    1        -0.6807227354E+01      0.1655378393E+02
          0                 3           2             4    7     1      -0.5459845399E-02       4    7    1        -0.2932254215E+00      0.7070816824E+00
          0                 4           2             4    7     1       0.3718481229E-03       4    7    1         0.2052800442E-01      0.4943246301E-01
          0                 5           1             4    7     1      -0.1479969440E-04       4    7    1        -0.8397275851E-03      0.2023468632E-02

    ------------------------------------------------
       NWT REQUIRED            5 OUTER ITERATIONS 
       AND A TOTAL OF          9 INNER ITERATIONS.
    ------------------------------------------------

 NO OUTPUT CONTROL FOR STRESS PERIOD   20   TIME STEP    8
 
 SOLVING FOR HEAD 
                                                   Max.-Head-Change                         Max.-Flux-Residual
  Residual-Control   Outer-Iter.   Inner-Iter.     Column Row Layer    Maximum-Head-Change  Column Row Layer    Maximum-Flux-Residual          L2-NORM 
          0                 1           2             5    8     1       0.4407812261E-01       5    8    1         0.2407685613E+01      0.5184862124E+01
          0                 2           2             4    7     1      -0.1246047988E+00       5    8    1        -0.6822926114E+01      0.1658775048E+02
          0                 3           2             4    7     1      -0.5626899431E-02       4    7    1        -0.3021969161E+00      0.7285044877E+00
          0                 4           2             4    7     1       0.3832254938E-03       4    7    1         0.2115602668E-01      0.5093608114E-01
          0                 5           1             4    7     1      -0.1525251826E-04       4    7    1        -0.8654128906E-03      0.2085358274E-02

    ------------------------------------------------
       NWT REQUIRED            5 OUTER ITERATIONS 
       AND A TOTAL OF          9 INNER ITERATIONS.
    ------------------------------------------------

 NO OUTPUT CONTROL FOR STRESS PERIOD   20   TIME STEP    9
 
 SOLVING FOR HEAD 
                                                   Max.-Head-Change                         Max.-Flux-Residual
  Residual-Control   Outer-Iter.   Inner-Iter.     Column Row Layer    Maximum-Head-Change  Column Row Layer    Maximum-Flux-Residual          L2-NORM 
          0                 1           2             5    8     1       0.4593613406E-01       5    8    1         0.2509006658E+01      0.5425869547E+01
          0                 2           2             4    7     1      -0.1246913174E+00       5    8    1        -0.6831820205E+01      0.1660562473E+02
          0                 3           2             4    7     1      -0.5576859289E-02       4    7    1        -0.2995159090E+00      0.7215181502E+00
          0                 4           2             4    7     1       0.3798174608E-03       4    7    1         0.2096827198E-01      0.5044843125E-01
          0                 5           1             4    7     1      -0.1511687757E-04       4    7    1        -0.8577263397E-03      0.2065807436E-02

    ------------------------------------------------
       NWT REQUIRED            5 OUTER ITERATIONS 
       AND A TOTAL OF          9 INNER ITERATIONS.
    ------------------------------------------------

 NO OUTPUT CONTROL FOR STRESS PERIOD   20   TIME STEP   10
 
 SOLVING FOR HEAD 
                                                   Max.-Head-Change                         Max.-Flux-Residual
  Residual-Control   Outer-Iter.   Inner-Iter.     Column Row Layer    Maximum-Head-Change  Column Row Layer    Maximum-Flux-Residual          L2-NORM 
          0                 1           2             5    8     1       0.4770640907E-01       5    8    1         0.2605461719E+01      0.5657929016E+01
          0                 2           2             4    7     1      -0.1248073018E+00       5    8    1        -0.6841765972E+01      0.1662662791E+02
          0                 3           2             4    7     1      -0.5579414158E-02       4    7    1        -0.2996573254E+00      0.7214787135E+00
          0                 4           2             4    7     1       0.3799914604E-03       4    7    1         0.2097985735E-01      0.5044315888E-01
          0                 5           1             4    7     1      -0.1512380245E-04       4    7    1        -0.8583147901E-03      0.2065056409E-02

    ------------------------------------------------
       NWT REQUIRED            5 OUTER ITERATIONS 
       AND A TOTAL OF          9 INNER ITERATIONS.
    ------------------------------------------------

 NO OUTPUT CONTROL FOR STRESS PERIOD   20   TIME STEP   11
 
 SOLVING FOR HEAD 
                                                   Max.-Head-Change                         Max.-Flux-Residual
  Residual-Control   Outer-Iter.   Inner-Iter.     Column Row Layer    Maximum-Head-Change  Column Row Layer    Maximum-Flux-Residual          L2-NORM 
          0                 1           2             5    8     1       0.4939661663E-01       5    8    1         0.2697478770E+01      0.5881720244E+01
          0                 2           2             4    7     1      -0.1249169839E+00       5    8    1        -0.6850895527E+01      0.1664613032E+02
          0                 3           2             4    7     1      -0.5569172870E-02       4    7    1        -0.2991114379E+00      0.7198080321E+00
          0                 4           2             4    7     1       0.3785247526E-03       4    7    1         0.2089923984E-01      0.5022078172E-01
          0                 5           1             4    7     1      -0.1506542680E-04       4    7    1        -0.8550182461E-03      0.2055647720E-02

    ------------------------------------------------
       NWT REQUIRED            5 OUTER ITERATIONS 
       AND A TOTAL OF          9 INNER ITERATIONS.
    ------------------------------------------------

 NO OUTPUT CONTROL FOR STRESS PERIOD   20   TIME STEP   12
 
 SOLVING FOR HEAD 
                                                   Max.-Head-Change                         Max.-Flux-Residual
  Residual-Control   Outer-Iter.   Inner-Iter.     Column Row Layer    Maximum-Head-Change  Column Row Layer    Maximum-Flux-Residual          L2-NORM 
          0                 1           2             5    8     1       0.5101099084E-01       5    8    1         0.2785295322E+01      0.6097569670E+01
          0                 2           2             4    7     1      -0.1250284690E+00       5    8    1        -0.6859677511E+01      0.1666523941E+02
          0                 3           2             4    7     1      -0.5561364563E-02       4    7    1        -0.2986954504E+00      0.7184997043E+00
          0                 4           2             4    7     1       0.3779670289E-03       4    7    1         0.2086872378E-01      0.5012608444E-01
          0                 5           1             4    7     1      -0.1504322965E-04       4    7    1        -0.8537713461E-03      0.2051934536E-02

    ------------------------------------------------
       NWT REQUIRED            5 OUTER ITERATIONS 
       AND A TOTAL OF          9 INNER ITERATIONS.
    ------------------------------------------------

 NO OUTPUT CONTROL FOR STRESS PERIOD   20   TIME STEP   13
 
 SOLVING FOR HEAD 
                                                   Max.-Head-Change                         Max.-Flux-Residual
  Residual-Control   Outer-Iter.   Inner-Iter.     Column Row Layer    Maximum-Head-Change  Column Row Layer    Maximum-Flux-Residual          L2-NORM 
          0                 1           2             5    8     1       0.5255456956E-01       5    8    1         0.2869192962E+01      0.6305883444E+01
          0                 2           2             4    7     1      -0.1251402297E+00       5    8    1        -0.6868067127E+01      0.1668380184E+02
          0                 3           2             4    7     1      -0.5553572904E-02       4    7    1        -0.2982797251E+00      0.7172340954E+00
          0                 4           2             4    7     1       0.3774363676E-03       4    7    1         0.2083965563E-01      0.5003250844E-01
          0                 5           1             4    7     1      -0.1502210860E-04       4    7    1        -0.8525836224E-03      0.2047163835E-02

    ------------------------------------------------
       NWT REQUIRED            5 OUTER ITERATIONS 
       AND A TOTAL OF          9 INNER ITERATIONS.
    ------------------------------------------------

 NO OUTPUT CONTROL FOR STRESS PERIOD   20   TIME STEP   14
 
 SOLVING FOR HEAD 
                                                   Max.-Head-Change                         Max.-Flux-Residual
  Residual-Control   Outer-Iter.   Inner-Iter.     Column Row Layer    Maximum-Head-Change  Column Row Layer    Maximum-Flux-Residual          L2-NORM 
          0                 1           2             5    8     1       0.5403150334E-01       5    8    1         0.2949404081E+01      0.6507008257E+01
          0                 2           2             5    7     1      -0.1252631739E+00       5    8    1        -0.6876088092E+01      0.1670183849E+02
          0                 3           2             4    7     1      -0.5545772707E-02       4    7    1        -0.2978629540E+00      0.7160029682E+00
          0                 4           2             4    7     1       0.3769051248E-03       4    7    1         0.2081051332E-01      0.4994292931E-01
          0                 5           1             4    7     1      -0.1500096511E-04       4    7    1        -0.8513928406E-03      0.2043021610E-02

    ------------------------------------------------
       NWT REQUIRED            5 OUTER ITERATIONS 
       AND A TOTAL OF          9 INNER ITERATIONS.
    ------------------------------------------------

 NO OUTPUT CONTROL FOR STRESS PERIOD   20   TIME STEP   15
 
 SOLVING FOR HEAD 
                                                   Max.-Head-Change                         Max.-Flux-Residual
  Residual-Control   Outer-Iter.   Inner-Iter.     Column Row Layer    Maximum-Head-Change  Column Row Layer    Maximum-Flux-Residual          L2-NORM 
          0                 1           2             5    8     1       0.5544578964E-01       5    8    1         0.3026151626E+01      0.6701304687E+01
          0                 2           2             5    7     1      -0.1253955148E+00       5    8    1        -0.6883762699E+01      0.1671937223E+02
          0                 3           2             4    7     1      -0.5537973999E-02       4    7    1        -0.2974457232E+00      0.7148062920E+00
          0                 4           2             4    7     1       0.3763739836E-03       4    7    1         0.2078133790E-01      0.4985851264E-01
          0                 5           1             4    7     1      -0.1497982529E-04       4    7    1        -0.8502006622E-03      0.2039595240E-02

    ------------------------------------------------
       NWT REQUIRED            5 OUTER ITERATIONS 
       AND A TOTAL OF          9 INNER ITERATIONS.
    ------------------------------------------------

 NO OUTPUT CONTROL FOR STRESS PERIOD   20   TIME STEP   16
 
 SOLVING FOR HEAD 
                                                   Max.-Head-Change                         Max.-Flux-Residual
  Residual-Control   Outer-Iter.   Inner-Iter.     Column Row Layer    Maximum-Head-Change  Column Row Layer    Maximum-Flux-Residual          L2-NORM 
          0                 1           2             5    8     1       0.5680113085E-01       5    8    1         0.3099642912E+01      0.6889082851E+01
          0                 2           2             5    7     1      -0.1255247917E+00       5    8    1        -0.6891111682E+01      0.1673642092E+02
          0                 3           2             4    7     1      -0.5530185143E-02       4    7    1        -0.2970285168E+00      0.7136428391E+00
          0                 4           2             4    7     1       0.3758435135E-03       4    7    1         0.2075216326E-01      0.4977645485E-01
          0                 5           1             4    7     1      -0.1495871265E-04       4    7    1        -0.8490084842E-03      0.2036271218E-02

    ------------------------------------------------
       NWT REQUIRED            5 OUTER ITERATIONS 
       AND A TOTAL OF          9 INNER ITERATIONS.
    ------------------------------------------------

 NO OUTPUT CONTROL FOR STRESS PERIOD   20   TIME STEP   17
 
 SOLVING FOR HEAD 
                                                   Max.-Head-Change                         Max.-Flux-Residual
  Residual-Control   Outer-Iter.   Inner-Iter.     Column Row Layer    Maximum-Head-Change  Column Row Layer    Maximum-Flux-Residual          L2-NORM 
          0                 1           2             5    8     1       0.5810096869E-01       5    8    1         0.3170069911E+01      0.7070665818E+01
          0                 2           2             5    7     1      -0.1256511085E+00       5    8    1        -0.6898154238E+01      0.1675300425E+02
          0                 3           2             4    7     1      -0.5522416477E-02       4    7    1        -0.2966119344E+00      0.7125111534E+00
          0                 4           2             4    7     1       0.3753144185E-03       4    7    1         0.2072303140E-01      0.4969667756E-01
          0                 5           1             4    7     1      -0.1493765412E-04       4    7    1        -0.8478180125E-03      0.2033035425E-02

    ------------------------------------------------
       NWT REQUIRED            5 OUTER ITERATIONS 
       AND A TOTAL OF          9 INNER ITERATIONS.
    ------------------------------------------------

 NO OUTPUT CONTROL FOR STRESS PERIOD   20   TIME STEP   18
 
 SOLVING FOR HEAD 
                                                   Max.-Head-Change                         Max.-Flux-Residual
  Residual-Control   Outer-Iter.   Inner-Iter.     Column Row Layer    Maximum-Head-Change  Column Row Layer    Maximum-Flux-Residual          L2-NORM 
          0                 1           2             5    8     1       0.5934849972E-01       5    8    1         0.3237611079E+01      0.7246351084E+01
          0                 2           2             5    7     1      -0.1257745101E+00       5    8    1        -0.6904908212E+01      0.1676914020E+02
          0                 3           2             4    7     1      -0.5514673869E-02       4    7    1        -0.2961963237E+00      0.7114091590E+00
          0                 4           2             4    7     1       0.3747870989E-03       4    7    1         0.2069396669E-01      0.4961506772E-01
          0                 5           1             4    7     1      -0.1491666709E-04       4    7    1        -0.8466302766E-03      0.2028991398E-02

    ------------------------------------------------
       NWT REQUIRED            5 OUTER ITERATIONS 
       AND A TOTAL OF          9 INNER ITERATIONS.
    ------------------------------------------------

 NO OUTPUT CONTROL FOR STRESS PERIOD   20   TIME STEP   19
 
 SOLVING FOR HEAD 
                                                   Max.-Head-Change                         Max.-Flux-Residual
  Residual-Control   Outer-Iter.   Inner-Iter.     Column Row Layer    Maximum-Head-Change  Column Row Layer    Maximum-Flux-Residual          L2-NORM 
          0                 1           2             5    8     1       0.6054683776E-01       5    8    1         0.3302440040E+01      0.7416405105E+01
          0                 2           2             5    7     1      -0.1258950578E+00       5    8    1        -0.6911390967E+01      0.1678484535E+02
          0                 3           2             4    7     1      -0.5506966291E-02       4    7    1        -0.2957822022E+00      0.7103364631E+00
          0                 4           2             4    7     1       0.3742621640E-03       4    7    1         0.2066500534E-01      0.4953905352E-01
          0                 5           1             4    7     1      -0.1489577434E-04       4    7    1        -0.8454466997E-03      0.2025854058E-02

    ------------------------------------------------
       NWT REQUIRED            5 OUTER ITERATIONS 
       AND A TOTAL OF          9 INNER ITERATIONS.
    ------------------------------------------------

 NO OUTPUT CONTROL FOR STRESS PERIOD   20   TIME STEP   20
 
 SOLVING FOR HEAD 
                                                   Max.-Head-Change                         Max.-Flux-Residual
  Residual-Control   Outer-Iter.   Inner-Iter.     Column Row Layer    Maximum-Head-Change  Column Row Layer    Maximum-Flux-Residual          L2-NORM 
          0                 1           2             5    8     1       0.6169874128E-01       5    8    1         0.3364710308E+01      0.7581096665E+01
          0                 2           2             5    7     1      -0.1260128423E+00       5    8    1        -0.6917617854E+01      0.1680013642E+02
          0                 3           2             4    7     1      -0.5499299208E-02       4    7    1        -0.2953698957E+00      0.7092918257E+00
          0                 4           2             4    7     1       0.3737399882E-03       4    7    1         0.2063617021E-01      0.4946515289E-01
          0                 5           1             4    7     1      -0.1487499132E-04       4    7    1        -0.8442682865E-03      0.2022827287E-02

    ------------------------------------------------
       NWT REQUIRED            5 OUTER ITERATIONS 
       AND A TOTAL OF          9 INNER ITERATIONS.
    ------------------------------------------------

 NO OUTPUT CONTROL FOR STRESS PERIOD   20   TIME STEP   21
 
 SOLVING FOR HEAD 
                                                   Max.-Head-Change                         Max.-Flux-Residual
  Residual-Control   Outer-Iter.   Inner-Iter.     Column Row Layer    Maximum-Head-Change  Column Row Layer    Maximum-Flux-Residual          L2-NORM 
          0                 1           2             5    8     1       0.6280677655E-01       5    8    1         0.3424564973E+01      0.7740669761E+01
          0                 2           2             5    7     1      -0.1261279236E+00       5    8    1        -0.6923603183E+01      0.1681502869E+02
          0                 3           2             4    7     1      -0.5491678474E-02       4    7    1        -0.2949597472E+00      0.7082745051E+00
          0                 4           2             4    7     1       0.3732209683E-03       4    7    1         0.2060748526E-01      0.4939312085E-01
          0                 5           1             4    7     1      -0.1485433424E-04       4    7    1        -0.8430959638E-03      0.2019866745E-02

    ------------------------------------------------
       NWT REQUIRED            5 OUTER ITERATIONS 
       AND A TOTAL OF          9 INNER ITERATIONS.
    ------------------------------------------------

 NO OUTPUT CONTROL FOR STRESS PERIOD   20   TIME STEP   22
 
 SOLVING FOR HEAD 
                                                   Max.-Head-Change                         Max.-Flux-Residual
  Residual-Control   Outer-Iter.   Inner-Iter.     Column Row Layer    Maximum-Head-Change  Column Row Layer    Maximum-Flux-Residual          L2-NORM 
          0                 1           2             5    8     1       0.6387347348E-01       5    8    1         0.3482144916E+01      0.7895367337E+01
          0                 2           2             5    7     1      -0.1262403771E+00       5    8    1        -0.6929361042E+01      0.1682953750E+02
          0                 3           2             4    7     1      -0.5484109389E-02       4    7    1        -0.2945520691E+00      0.7072825338E+00
          0                 4           2             4    7     1       0.3727054668E-03       4    7    1         0.2057897248E-01      0.4932291668E-01
          0                 5           1             4    7     1      -0.1483381704E-04       4    7    1        -0.8419306437E-03      0.2016998399E-02

    ------------------------------------------------
       NWT REQUIRED            5 OUTER ITERATIONS 
       AND A TOTAL OF          9 INNER ITERATIONS.
    ------------------------------------------------

 NO OUTPUT CONTROL FOR STRESS PERIOD   20   TIME STEP   23
 
 SOLVING FOR HEAD 
                                                   Max.-Head-Change                         Max.-Flux-Residual
  Residual-Control   Outer-Iter.   Inner-Iter.     Column Row Layer    Maximum-Head-Change  Column Row Layer    Maximum-Flux-Residual          L2-NORM 
          0                 1           2             5    8     1       0.6490090967E-01       5    8    1         0.3537565684E+01      0.8045397104E+01
          0                 2           2             5    7     1      -0.1263502467E+00       5    8    1        -0.6934902986E+01      0.1684367554E+02
          0                 3           2             4    7     1      -0.5476597644E-02       4    7    1        -0.2941471953E+00      0.7063156772E+00
          0                 4           2             4    7     1       0.3721938702E-03       4    7    1         0.2055065517E-01      0.4925438806E-01
          0                 5           1             4    7     1      -0.1481345516E-04       4    7    1        -0.8407732976E-03      0.2014175720E-02

    ------------------------------------------------
       NWT REQUIRED            5 OUTER ITERATIONS 
       AND A TOTAL OF          9 INNER ITERATIONS.
    ------------------------------------------------

 NO OUTPUT CONTROL FOR STRESS PERIOD   20   TIME STEP   24
 
 SOLVING FOR HEAD 
                                                   Max.-Head-Change                         Max.-Flux-Residual
  Residual-Control   Outer-Iter.   Inner-Iter.     Column Row Layer    Maximum-Head-Change  Column Row Layer    Maximum-Flux-Residual          L2-NORM 
          0                 1           2             5    8     1       0.6589144213E-01       5    8    1         0.3590958450E+01      0.8190974106E+01
          0                 2           2             5    7     1      -0.1264576363E+00       5    8    1        -0.6940242132E+01      0.1685745768E+02
          0                 3           2             4    7     1      -0.5469146588E-02       4    7    1        -0.2937453278E+00      0.7053731808E+00
          0                 4           2             4    7     1       0.3716864071E-03       4    7    1         0.2052254753E-01      0.4918777023E-01
          0                 5           1             4    7     1      -0.1479325836E-04       4    7    1        -0.8396245084E-03      0.2011446901E-02

    ------------------------------------------------
       NWT REQUIRED            5 OUTER ITERATIONS 
       AND A TOTAL OF          9 INNER ITERATIONS.
    ------------------------------------------------

 NO OUTPUT CONTROL FOR STRESS PERIOD   20   TIME STEP   25
 
 SOLVING FOR HEAD 
                                                   Max.-Head-Change                         Max.-Flux-Residual
  Residual-Control   Outer-Iter.   Inner-Iter.     Column Row Layer    Maximum-Head-Change  Column Row Layer    Maximum-Flux-Residual          L2-NORM 
          0                 1           2             5    8     1       0.6684699248E-01       5    8    1         0.3642429796E+01      0.8332298742E+01
          0                 2           2             5    7     1      -0.1265625875E+00       5    8    1        -0.6945389138E+01      0.1687089588E+02
          0                 3           2             4    7     1      -0.5461760984E-02       4    7    1        -0.2933467475E+00      0.7044532906E+00
          0                 4           2             4    7     1       0.3711834013E-03       4    7    1         0.2049466921E-01      0.4912262305E-01
          0                 5           1             4    7     1      -0.1477323829E-04       4    7    1        -0.8384850453E-03      0.2008784296E-02

    ------------------------------------------------
       NWT REQUIRED            5 OUTER ITERATIONS 
       AND A TOTAL OF          9 INNER ITERATIONS.
    ------------------------------------------------

 NO OUTPUT CONTROL FOR STRESS PERIOD   20   TIME STEP   26
 
 SOLVING FOR HEAD 
                                                   Max.-Head-Change                         Max.-Flux-Residual
  Residual-Control   Outer-Iter.   Inner-Iter.     Column Row Layer    Maximum-Head-Change  Column Row Layer    Maximum-Flux-Residual          L2-NORM 
          0                 1           2             5    8     1       0.6776920217E-01       5    8    1         0.3692071528E+01      0.8469556962E+01
          0                 2           2             5    7     1      -0.1266651714E+00       5    8    1        -0.6950353185E+01      0.1688400364E+02
          0                 3           2             4    7     1      -0.5454443317E-02       4    7    1        -0.2929516064E+00      0.7035561804E+00
          0                 4           2             4    7     1       0.3706850229E-03       4    7    1         0.2046703091E-01      0.4905908931E-01
          0                 5           1             4    7     1      -0.1475340266E-04       4    7    1        -0.8373553851E-03      0.2006166588E-02

    ------------------------------------------------
       NWT REQUIRED            5 OUTER ITERATIONS 
       AND A TOTAL OF          9 INNER ITERATIONS.
    ------------------------------------------------

 NO OUTPUT CONTROL FOR STRESS PERIOD   20   TIME STEP   27
 
 SOLVING FOR HEAD 
                                                   Max.-Head-Change                         Max.-Flux-Residual
  Residual-Control   Outer-Iter.   Inner-Iter.     Column Row Layer    Maximum-Head-Change  Column Row Layer    Maximum-Flux-Residual          L2-NORM 
          0                 1           2             5    8     1       0.6866017440E-01       5    8    1         0.3740000059E+01      0.8603007671E+01
          0                 2           2             5    7     1      -0.1267654434E+00       5    8    1        -0.6955145915E+01      0.1689679142E+02
          0                 3           2             4    7     1      -0.5447198475E-02       4    7    1        -0.2925601903E+00      0.7026803505E+00
          0                 4           2             4    7     1       0.3701916044E-03       4    7    1         0.2043965263E-01      0.4899707919E-01
          0                 5           1             4    7     1      -0.1473376436E-04       4    7    1        -0.8362363233E-03      0.2003636520E-02

    ------------------------------------------------
       NWT REQUIRED            5 OUTER ITERATIONS 
       AND A TOTAL OF          9 INNER ITERATIONS.
    ------------------------------------------------

 NO OUTPUT CONTROL FOR STRESS PERIOD   20   TIME STEP   28
 
 SOLVING FOR HEAD 
                                                   Max.-Head-Change                         Max.-Flux-Residual
  Residual-Control   Outer-Iter.   Inner-Iter.     Column Row Layer    Maximum-Head-Change  Column Row Layer    Maximum-Flux-Residual          L2-NORM 
          0                 1           2             5    8     1       0.6952130793E-01       5    8    1         0.3786293163E+01      0.8732722263E+01
          0                 2           2             5    7     1      -0.1268634863E+00       5    8    1        -0.6959775104E+01      0.1690927126E+02
          0                 3           2             4    7     1      -0.5440028157E-02       4    7    1        -0.2921726076E+00      0.7018269470E+00
          0                 4           2             4    7     1       0.3697032610E-03       4    7    1         0.2041254195E-01      0.4893659363E-01
          0                 5           1             4    7     1      -0.1471432799E-04       4    7    1        -0.8351281681E-03      0.2001137192E-02

    ------------------------------------------------
       NWT REQUIRED            5 OUTER ITERATIONS 
       AND A TOTAL OF          9 INNER ITERATIONS.
    ------------------------------------------------

 NO OUTPUT CONTROL FOR STRESS PERIOD   20   TIME STEP   29
 
 SOLVING FOR HEAD 
                                                   Max.-Head-Change                         Max.-Flux-Residual
  Residual-Control   Outer-Iter.   Inner-Iter.     Column Row Layer    Maximum-Head-Change  Column Row Layer    Maximum-Flux-Residual          L2-NORM 
          0                 1           2             5    8     1       0.7035173038E-01       5    8    1         0.3831031188E+01      0.8854591620E+01
          0                 2           2             5    7     1      -0.1269591242E+00       5    8    1        -0.6964248749E+01      0.1691504504E+02
          0                 3           2             4    7     1      -0.1311846758E-01       4    7    1        -0.7042607710E+00      0.1709661600E+01
          0                 4           2             4    7     1       0.8934454858E-03       4    7    1         0.4930712763E-01      0.1196859719E+00
          0                 5           1             4    7     1      -0.3555946765E-04       4    7    1        -0.2017217574E-02      0.4897256190E-02

    ------------------------------------------------
       NWT REQUIRED            5 OUTER ITERATIONS 
       AND A TOTAL OF          9 INNER ITERATIONS.
    ------------------------------------------------

 NO OUTPUT CONTROL FOR STRESS PERIOD   20   TIME STEP   30



 STREAM LISTING     PERIOD     20   STEP       30

 LAYER ROW COL. STREAM  RCH.  FLOW INTO     FLOW TO   FLOW OUT OF   OVRLND.     DIRECT     STREAM       STREAM     STREAM     STREAM   STREAMBED  STREAMBED
                SEG.NO.  NO.  STRM. RCH.    AQUIFER    STRM. RCH.    RUNOFF     PRECIP       ET          HEAD       DEPTH      WIDTH   CONDCTNC.   GRADIENT

   1    1    1     1     1    1.6138E+01  1.9509E-01   1.5943E+01  0.000E+00  0.000E+00  0.000E+00  1.09408E+03  1.032E+00  1.075E+01  4.839E-02  1.344E+00
   1    2    2     1     2    1.5943E+01  3.0079E-01   1.5642E+01  0.000E+00  0.000E+00  0.000E+00  1.08909E+03  1.027E+00  1.067E+01  7.469E-02  1.342E+00
   1    3    3     1     3    1.5642E+01  2.5522E-01   1.5387E+01  0.000E+00  0.000E+00  0.000E+00  1.08344E+03  1.022E+00  1.058E+01  6.345E-02  1.341E+00
   1    3    4     1     4    1.5387E+01  2.3394E-01   1.5153E+01  0.000E+00  0.000E+00  0.000E+00  1.07843E+03  1.017E+00  1.049E+01  5.823E-02  1.339E+00
   1    4    5     2     1    1.3153E+01  2.9763E-01   1.2856E+01  0.000E+00  0.000E+00  0.000E+00  1.07275E+03  8.158E-01  1.200E+01  7.800E-02  1.272E+00
   1    5    6     2     2    1.2856E+01  2.2835E-01   1.2627E+01  0.000E+00  0.000E+00  0.000E+00  1.06732E+03  8.059E-01  1.200E+01  6.000E-02  1.269E+00
   1    6    6     2     3    1.2627E+01  2.2783E-01   1.2399E+01  0.000E+00  0.000E+00  0.000E+00  1.06259E+03  7.972E-01  1.200E+01  6.000E-02  1.266E+00
   1    7    6     2     4    1.2399E+01  2.2731E-01   1.2172E+01  0.000E+00  0.000E+00  0.000E+00  1.05786E+03  7.885E-01  1.200E+01  6.000E-02  1.263E+00
   1    8    6     2     5    1.2172E+01  2.2678E-01   1.1945E+01  0.000E+00  0.000E+00  0.000E+00  1.05314E+03  7.797E-01  1.200E+01  6.000E-02  1.260E+00
   1    3    5     3     1    2.0000E+00  2.8252E-01   1.7175E+00  0.000E+00  0.000E+00  0.000E+00  1.07555E+03  1.909E+00  9.636E+00  7.227E-02  1.955E+00
   1    3    6     3     2    1.7175E+00  2.4905E-01   1.4684E+00  0.000E+00  0.000E+00  0.000E+00  1.07264E+03  1.727E+00  8.909E+00  6.682E-02  1.864E+00
   1    3    7     3     3    1.4684E+00  1.9718E-01   1.2712E+00  0.000E+00  0.000E+00  0.000E+00  1.06987E+03  1.555E+00  8.218E+00  5.547E-02  1.777E+00
   1    4    8     3     4    1.2712E+00  2.2567E-01   1.0456E+00  0.000E+00  0.000E+00  0.000E+00  1.06682E+03  1.364E+00  7.455E+00  6.709E-02  1.682E+00
   1    5    8     3     5    1.0456E+00  1.5790E-01   8.8768E-01  0.000E+00  0.000E+00  0.000E+00  1.06362E+03  1.164E+00  6.655E+00  4.991E-02  1.582E+00
   1    6    8     3     6    8.8768E-01  5.5980E-02   8.3170E-01  0.000E+00  0.000E+00  0.000E+00  1.06158E+03  1.036E+00  6.145E+00  1.844E-02  1.518E+00
   1    5   10     4     1    1.0000E+01  9.0919E-02   9.9091E+00  0.000E+00  0.000E+00  0.000E+00  1.07836E+03  6.368E-01  1.000E+01  2.500E-02  1.212E+00
   1    5    9     4     2    9.9091E+00  1.8158E-01   9.7275E+00  0.000E+00  0.000E+00  0.000E+00  1.07154E+03  6.315E-01  1.000E+01  5.000E-02  1.211E+00
   1    6    8     4     3    9.7275E+00  1.2689E-01   9.6006E+00  0.000E+00  0.000E+00  0.000E+00  1.06381E+03  6.256E-01  1.000E+01  3.500E-02  1.209E+00
   1    6    8     5     1    1.0432E+01  2.2686E-01   1.0205E+01  0.000E+00  0.000E+00  0.000E+00  1.05868E+03  6.790E-01  1.542E+01  6.166E-02  1.226E+00
   1    7    7     5     2    1.0205E+01  2.7894E-01   9.9265E+00  0.000E+00  0.000E+00  0.000E+00  1.05417E+03  6.732E-01  1.519E+01  7.594E-02  1.224E+00
   1    8    7     5     3    9.9265E+00  1.9221E-01   9.7343E+00  0.000E+00  0.000E+00  0.000E+00  1.04992E+03  6.676E-01  1.497E+01  5.241E-02  1.223E+00
   1    8    6     5     4    9.7343E+00  1.3577E-01   9.5985E+00  0.000E+00  0.000E+00  0.000E+00  1.04691E+03  6.637E-01  1.482E+01  3.706E-02  1.221E+00
   1    9    6     6     1    9.5985E+00  2.2097E-01   9.3776E+00  0.000E+00  0.000E+00  0.000E+00  1.04341E+03  6.828E-01  1.200E+01  6.000E-02  1.228E+00
   1   10    7     6     2    9.3776E+00  2.2039E-01   9.1572E+00  0.000E+00  0.000E+00  0.000E+00  1.03885E+03  6.732E-01  1.200E+01  6.000E-02  1.224E+00
   1   11    7     6     3    9.1572E+00  2.1981E-01   8.9374E+00  0.000E+00  0.000E+00  0.000E+00  1.03430E+03  6.636E-01  1.200E+01  6.000E-02  1.221E+00
   1   12    7     6     4    8.9374E+00  2.1923E-01   8.7181E+00  0.000E+00  0.000E+00  0.000E+00  1.02974E+03  6.539E-01  1.200E+01  6.000E-02  1.218E+00
   1   13    7     6     5    8.7181E+00 -2.5942E-02   8.7441E+00  0.000E+00  0.000E+00  0.000E+00  1.02656E+03  6.495E-01  1.200E+01  2.400E-01 -3.603E-02
   1   14    9     7     1    1.5000E+02  1.3747E+00   1.4863E+02  0.000E+00  0.000E+00  0.000E+00  1.03987E+03  2.288E+00  5.529E+01  5.593E-01  8.193E-01
   1   13    8     7     2    1.4863E+02  1.9589E+00   1.4667E+02  0.000E+00  0.000E+00  0.000E+00  1.03478E+03  2.279E+00  5.525E+01  6.147E-01  1.062E+00
   1   13    7     7     3    1.4667E+02  1.6872E+00   1.4498E+02  0.000E+00  0.000E+00  0.000E+00  1.02969E+03  2.269E+00  5.521E+01  5.584E-01  1.007E+00
   1   13    6     8     1    1.5372E+02  1.0440E+00   1.5268E+02  0.000E+00  0.000E+00  0.000E+00  1.02471E+03  2.839E+00  4.117E+01  4.195E-01  8.295E-01
   1   13    5     8     2    1.5268E+02  3.0558E-01   1.5237E+02  0.000E+00  0.000E+00  0.000E+00  1.01846E+03  2.835E+00  4.110E+01  4.188E-01  2.432E-01
   1   13    4     8     3    1.5237E+02 -1.9641E+00   1.5434E+02  0.000E+00  0.000E+00  0.000E+00  1.01222E+03  2.840E+00  4.118E+01  4.197E+00 -1.560E-01
   1   13    3     8     4    1.5434E+02 -3.4127E+00   1.5775E+02  0.000E+00  0.000E+00  0.000E+00  1.00598E+03  2.859E+00  4.145E+01  4.224E+00 -2.693E-01
   1   13    2     8     5    1.5775E+02 -2.5299E+00   1.6028E+02  0.000E+00  0.000E+00  0.000E+00  9.99754E+02  2.879E+00  4.175E+01  4.254E+00 -1.982E-01
   1   13    1     8     6    1.6028E+02 -1.9771E+00   1.6226E+02  0.000E+00  0.000E+00  0.000E+00  9.94769E+02  2.894E+00  4.197E+01  2.566E+00 -2.568E-01
   1    8    6     9     1    1.1945E+01  0.0000E+00   1.1945E+01  0.000E+00  0.000E+00  0.000E+00  1.08127E+03  2.521E+00  4.000E+00  0.000E+00  1.840E+00
   1    8    5     9     2    1.1945E+01  0.0000E+00   1.1945E+01  0.000E+00  0.000E+00  0.000E+00  1.08077E+03  2.521E+00  4.000E+00  0.000E+00  1.840E+00





UNSATURATED ZONE PACKAGE VOLUMETRIC BUDGET FOR  TIME STEP    30 STRESS PERIOD   20
  ------------------------------------------------------------------------------



     CUMULATIVE VOLUMES      L**3       RATES FOR THIS TIME STEP      L**3/T
     ------------------                 ------------------------

           IN:                                      IN:
           ---                                      ---
        INFILTRATION =   944801555.9685          INFILTRATION =          59.3640

          OUT:                                     OUT:
          ----                                     ----
              UZF ET =   693990744.7568                UZF ET =          60.8175
        UZF RECHARGE =       73224.0000          UZF RECHARGE =       0.0000E+00

            IN - OUT =   250737587.2117              IN - OUT =          -1.4535

          STORAGE:                                 STORAGE:
          --------                                 --------
      STORAGE CHANGE =   250737934.1075        STORAGE CHANGE =          -1.4535

 PERCENT DISCREPANCY IS DIFFERENCE BETWEEN IN-OUT MINUS CHANGE IN STORAGE
 DIVIDED BY THE AVERAGE OF IN AND OUT TIMES 100

 PERCENT DISCREPANCY =          -0.00     PERCENT DISCREPANCY =           0.00






1
  VOLUMETRIC BUDGET FOR AGRICULTURAL FIELDS AT  END OF TIME STEP   30, STRESS PERIOD  20
  ------------------------------------------------------------------------------

     CUMULATIVE VOLUMES      L**3       RATES FOR THIS TIME STEP      L**3/T
     ------------------                 ------------------------

           IN:                                      IN:
           ---                                      ---
               AG WELLS  =   572727040.0000                 AG WELLS  =          46.5710
      DIVERSION SEGMENTS =   329705952.0000        DIVERSION SEGMENTS =          11.9453
       IRRIGATION PONDS  =           0.0000         IRRIGATION PONDS  =           0.0000
           GW IRRIGATION =           0.0000             GW IRRIGATION =           0.0000
           SW IRRIGATION =           0.0000             SW IRRIGATION =           0.0000
        SYSTEM LOSSES GW =           0.0000          SYSTEM LOSSES GW =           0.0000
        SYSTEM LOSSES SW =           0.0000          SYSTEM LOSSES SW =           0.0000

                TOTAL IN =   902433024.0000                  TOTAL IN =          58.5162

          OUT:                                     OUT:
          ----                                     ----
               AG WELLS  =           0.0000                 AG WELLS  =           0.0000
      DIVERSION SEGMENTS =           0.0000        DIVERSION SEGMENTS =           0.0000
       IRRIGATION PONDS  =           0.0000         IRRIGATION PONDS  =           0.0000
           GW IRRIGATION =   572727040.0000             GW IRRIGATION =          46.5710
           SW IRRIGATION =   329712608.0000             SW IRRIGATION =          11.9455
        SYSTEM LOSSES GW =           0.0000          SYSTEM LOSSES GW =           0.0000
        SYSTEM LOSSES SW =           0.0000          SYSTEM LOSSES SW =           0.0000

               TOTAL OUT =   902439680.0000                 TOTAL OUT =          58.5165

                IN - OUT =       -6656.0000                  IN - OUT =      -2.3651E-04

     PERCENT DISCREPANCY =          -0.00         PERCENT DISCREPANCY =          -0.00



1
  VOLUMETRIC BUDGET FOR ENTIRE MODEL AT END OF TIME STEP   30, STRESS PERIOD  20
  ------------------------------------------------------------------------------

     CUMULATIVE VOLUMES      L**3       RATES FOR THIS TIME STEP      L**3/T
     ------------------                 ------------------------

           IN:                                      IN:
           ---                                      ---
             STORAGE     =   857667712.0000               STORAGE     =          44.7816
       CONSTANT HEAD     =           0.0000         CONSTANT HEAD     =           0.0000
     HEAD DEP BOUNDS     =    14417903.0000       HEAD DEP BOUNDS     =           0.2884
      STREAM LEAKAGE     =   592332864.0000        STREAM LEAKAGE     =          11.8452
        UZF RECHARGE     =       73223.9531          UZF RECHARGE     =           0.0000
               GW ET     =           0.0000                 GW ET     =           0.0000
     SURFACE LEAKAGE     =           0.0000       SURFACE LEAKAGE     =           0.0000
           AG WELLS      =           0.0000             AG WELLS      =           0.0000

                TOTAL IN =  1464491776.0000                  TOTAL IN =          56.9152

          OUT:                                     OUT:
          ----                                     ----
             STORAGE     =   368371168.0000               STORAGE     =           0.1477
       CONSTANT HEAD     =           0.0000         CONSTANT HEAD     =           0.0000
     HEAD DEP BOUNDS     =    14421724.0000       HEAD DEP BOUNDS     =           0.2865
      STREAM LEAKAGE     =   508977216.0000        STREAM LEAKAGE     =           9.9098
        UZF RECHARGE     =           0.0000          UZF RECHARGE     =           0.0000
               GW ET     =           0.0000                 GW ET     =           0.0000
     SURFACE LEAKAGE     =           0.0000       SURFACE LEAKAGE     =           0.0000
           AG WELLS      =   572727040.0000             AG WELLS      =          46.5710

               TOTAL OUT =  1464497152.0000                 TOTAL OUT =          56.9151

                IN - OUT =       -5376.0000                  IN - OUT =       1.5259E-04

     PERCENT DISCREPANCY =          -0.00         PERCENT DISCREPANCY =           0.00






         TIME SUMMARY AT END OF TIME STEP   30 IN STRESS PERIOD   20
                    SECONDS     MINUTES      HOURS       DAYS        YEARS
                    -----------------------------------------------------------
   TIME STEP LENGTH  87667.      1461.1      24.352      1.0147     2.77799E-03
 STRESS PERIOD TIME 2.63000E+06  43833.      730.56      30.440     8.33397E-02
         TOTAL TIME 5.00565E+07 8.34276E+05  13905.      579.36      1.5862    
1
1
                            STRESS PERIOD NO.   21, LENGTH =   2630000.    
                            -----------------------------------------------

                              NUMBER OF TIME STEPS =    30

                               MULTIPLIER FOR DELT =     1.000

                            INITIAL TIME STEP SIZE =   87666.66    

 REUSING NON-PARAMETER GHB CELLS FROM LAST STRESS PERIOD

      2 GHB CELLS

 REUSING STREAM SEGMENT DATA FROM LAST STRESS PERIOD



            AREAL INFILTRATION RATE
 READING ON UNIT   19 WITH FORMAT: (FREE)              

            1           2           3           4           5           6           7           8           9          10
 ........................................................................................................................
   1   1.0000E-10  2.0000E-10   0.000       0.000       0.000       0.000       0.000       0.000       0.000       0.000    
   2   2.0000E-10  1.0000E-10  2.0000E-10   0.000       0.000      8.0000E-10  8.0000E-10  5.0000E-10   0.000       0.000    
   3    0.000      5.0000E-10  1.0000E-10  1.0000E-10  8.0000E-10  8.0000E-10  5.0000E-10  5.0000E-10   0.000       0.000    
   4   8.0000E-10  5.0000E-10  1.0000E-10  1.0000E-10  1.0000E-10  1.0000E-10  1.0000E-10  1.0000E-10  2.0000E-10   0.000    
   5   8.0000E-10  5.0000E-10  1.0000E-10  1.0000E-10  1.0000E-10  1.0000E-10  1.0000E-10  1.0000E-10  1.0000E-10  1.0000E-10
   6   8.0000E-10  5.0000E-10  5.0000E-10  2.0000E-10  2.0000E-10  1.0000E-10  1.0000E-10  1.0000E-10  1.0000E-10  5.0000E-10
   7   8.0000E-10  5.0000E-10  5.0000E-10  2.0000E-10  2.0000E-10  1.0000E-10  1.0000E-10  2.0000E-10  2.0000E-10   0.000    
   8    0.000      5.0000E-10  5.0000E-10  2.0000E-10  2.0000E-10  1.0000E-10  1.0000E-10  2.0000E-10  5.0000E-10   0.000    
   9    0.000      5.0000E-10  5.0000E-10  2.0000E-10  2.0000E-10  1.0000E-10  1.0000E-10  2.0000E-10  5.0000E-10   0.000    
  10    0.000      5.0000E-10  5.0000E-10  2.0000E-10  2.0000E-10  1.0000E-10  1.0000E-10  2.0000E-10  5.0000E-10  8.0000E-10
  11    0.000      1.0000E-10  1.0000E-10  1.0000E-10  1.0000E-10  1.0000E-10  1.0000E-10  2.0000E-10  5.0000E-10   0.000    
  12   1.0000E-10  1.0000E-10  1.0000E-10  1.0000E-10  1.0000E-10  1.0000E-10  1.0000E-10  1.0000E-10  2.0000E-10   0.000    
  13   1.0000E-10  1.0000E-10  2.0000E-10  2.0000E-10  2.0000E-10  2.0000E-10  2.0000E-10  1.0000E-10  1.0000E-10   0.000    
  14    0.000      2.0000E-10  5.0000E-10  5.0000E-10  5.0000E-10  5.0000E-10  5.0000E-10  2.0000E-10  1.0000E-10   0.000    
  15    0.000       0.000      8.0000E-10  8.0000E-10  8.0000E-10  8.0000E-10   0.000       0.000       0.000       0.000    

                  ET RATE =  3.250000E-07

 USING ET EXTINCTION DEPTH FROM PREVIOUS STRESS PERIOD. CURRENT PERIOD IS:      21

 USING EXTINCTION WATER CONTENT FROM PREVIOUS STRESS PERIOD. CURRENT PERIOD IS:      21

 USING AIR ENTRY PRESSURE FROM PREVIOUS STRESS PERIOD. CURRENT PERIOD IS:      21

 USING ROOT PRESSURE HEAD FROM PREVIOUS STRESS PERIOD. CURRENT PERIOD IS:      21

 USING ROOT ACTIVITY FROM PREVIOUS STRESS PERIOD. CURRENT PERIOD IS:      21

 PROCESSING AG STRESS PERIOD DATA

 READING AG STRESS PERIOD DATA

 READING IRRIGATION SEGMENT

 READING IRRIGATION WELL

 READING SUPPLEMENTAL WELL

 NO IRRPOND OR REUSING IRRPOND DATA FROM LAST STRESS PERIOD

 END PROCESSING AG STRESS PERIOD DATA OPTIONS
 
 SOLVING FOR HEAD 
                                                   Max.-Head-Change                         Max.-Flux-Residual
  Residual-Control   Outer-Iter.   Inner-Iter.     Column Row Layer    Maximum-Head-Change  Column Row Layer    Maximum-Flux-Residual          L2-NORM 
          0                 1           2             5    8     1       0.7137609801E-01       5    8    1         0.3886437312E+01      0.8995245262E+01
          0                 2           2             4    7     1      -0.2297396074E+00       5    8    1        -0.1248502462E+02      0.3042788355E+02
          0                 3           2             4    7     1       0.1564415334E-01       5    8    1         0.8738854328E+00      0.2129832601E+01
          0                 4           2             4    7     1      -0.6224967471E-03       5    8    1        -0.3573689588E-01      0.8710329939E-01
          0                 5           1             4    7     1       0.7675652748E-05       5    8    1         0.4525479258E-03      0.1103653867E-02

    ------------------------------------------------
       NWT REQUIRED            5 OUTER ITERATIONS 
       AND A TOTAL OF          9 INNER ITERATIONS.
    ------------------------------------------------

 NO OUTPUT CONTROL FOR STRESS PERIOD   21   TIME STEP    1
 
 SOLVING FOR HEAD 
                                                   Max.-Head-Change                         Max.-Flux-Residual
  Residual-Control   Outer-Iter.   Inner-Iter.     Column Row Layer    Maximum-Head-Change  Column Row Layer    Maximum-Flux-Residual          L2-NORM 
          0                 1           2             5    8     1       0.7469662544E-01       5    8    1         0.4068437316E+01      0.9400990817E+01
          0                 2           2             5    8     1      -0.1482879276E-01       5    8    1        -0.8232363275E+00      0.1906145478E+01
          0                 3           2             4    7     1      -0.2179276503E-01       4    7    1        -0.1169805275E+01      0.2862587849E+01
          0                 4           2             4    7     1       0.2165671000E-01       4    7    1         0.1194791878E+01      0.2925620144E+01
          0                 5           2             4    7     1      -0.2025172391E-02       4    7    1        -0.1148425134E+00      0.2812847846E+00
          0                 6           2             4    7     1      -0.6701577205E-02       4    7    1        -0.3800193552E+00      0.9308526835E+00
          0                 7           2             4    7     1      -0.9179775912E-03       4    7    1        -0.5205390762E-01      0.1275004430E+00
          0                 8           2             4    7     1      -0.1384858659E-02       4    7    1        -0.7852814223E-01      0.1923530262E+00
          0                 9           2             4    7     1      -0.5802876998E-02       4    7    1        -0.3290479271E+00      0.8059983389E+00
          0                10           2             4    7     1      -0.1242291104E-02       4    7    1        -0.7044219610E-01      0.1725428523E+00
                                                   Max.-Head-Change                         Max.-Flux-Residual
  Residual-Control   Outer-Iter.   Inner-Iter.     Column Row Layer    Maximum-Head-Change  Column Row Layer    Maximum-Flux-Residual          L2-NORM 
          0                11           2             4    7     1      -0.1378958395E-02       4    7    1        -0.7819122617E-01      0.1915274969E+00
          0                12           2             4    7     1      -0.1324836078E-01       4    7    1        -0.7512164501E+00      0.1840095805E+01
          0                13           2             4    7     1      -0.1260959174E-02       4    7    1        -0.7149818417E-01      0.1751246321E+00
          0                14           1             4    7     1       0.1565785267E-04       5    8    1         0.9135569185E-03      0.2238342623E-02

    ------------------------------------------------
       NWT REQUIRED           14 OUTER ITERATIONS 
       AND A TOTAL OF         27 INNER ITERATIONS.
    ------------------------------------------------

 NO OUTPUT CONTROL FOR STRESS PERIOD   21   TIME STEP    2
 
 SOLVING FOR HEAD 
                                                   Max.-Head-Change                         Max.-Flux-Residual
  Residual-Control   Outer-Iter.   Inner-Iter.     Column Row Layer    Maximum-Head-Change  Column Row Layer    Maximum-Flux-Residual          L2-NORM 
          0                 1           2             5    8     1       0.7263758128E-01       5    8    1         0.3953525669E+01      0.9211722306E+01
          0                 2           2             5    7     1      -0.8943972448E-01       5    8    1        -0.4927045531E+01      0.1193170366E+02
          0                 3           2             4    7     1      -0.2778109036E-01       4    7    1        -0.1491165436E+01      0.3637140626E+01
          0                 4           2             4    7     1       0.1563567878E-03       4    7    1         0.8642983947E-02      0.2019645115E-01
          0                 5           2             4    7     1      -0.4625226092E-03       4    7    1        -0.2622868464E-01      0.6420320937E-01
          0                 6           1             4    7     1       0.5707337010E-05       4    7    1         0.3326714050E-03      0.8143335481E-03

    ------------------------------------------------
       NWT REQUIRED            6 OUTER ITERATIONS 
       AND A TOTAL OF         11 INNER ITERATIONS.
    ------------------------------------------------

 NO OUTPUT CONTROL FOR STRESS PERIOD   21   TIME STEP    3
 
 SOLVING FOR HEAD 
                                                   Max.-Head-Change                         Max.-Flux-Residual
  Residual-Control   Outer-Iter.   Inner-Iter.     Column Row Layer    Maximum-Head-Change  Column Row Layer    Maximum-Flux-Residual          L2-NORM 
          0                 1           2             5    8     1       0.7290433805E-01       5    8    1         0.3967089855E+01      0.9273590857E+01
          0                 2           2             5    7     1      -0.9009636188E-01       5    8    1        -0.4960562661E+01      0.1201739072E+02
          0                 3           2             4    7     1      -0.2756294565E-01       4    7    1        -0.1479449357E+01      0.3608777077E+01
          0                 4           2             4    7     1       0.1533375422E-03       4    7    1         0.8476014148E-02      0.1981136295E-01
          0                 5           2             4    7     1      -0.1076403502E-03       4    7    1        -0.6104571817E-02      0.1491044886E-01
          0                 6           1             4    7     1       0.1328237180E-05       4    7    1         0.7742715798E-04      0.1891053377E-03

    ------------------------------------------------
       NWT REQUIRED            6 OUTER ITERATIONS 
       AND A TOTAL OF         11 INNER ITERATIONS.
    ------------------------------------------------

 NO OUTPUT CONTROL FOR STRESS PERIOD   21   TIME STEP    4
 
 SOLVING FOR HEAD 
                                                   Max.-Head-Change                         Max.-Flux-Residual
  Residual-Control   Outer-Iter.   Inner-Iter.     Column Row Layer    Maximum-Head-Change  Column Row Layer    Maximum-Flux-Residual          L2-NORM 
          0                 1           2             5    8     1       0.7317710791E-01       5    8    1         0.3981019375E+01      0.9335020124E+01
          0                 2           2             5    7     1      -0.9069311159E-01       5    8    1        -0.4990950601E+01      0.1209524256E+02
          0                 3           2             4    7     1      -0.2720271231E-01       4    7    1        -0.1460107891E+01      0.3561726289E+01
          0                 4           2             4    7     1       0.1449543634E-03       4    7    1         0.8013126613E-02      0.1870399052E-01
          0                 5           1             4    7     1      -0.5769237652E-05       4    7    1        -0.3278271724E-03      0.7637426800E-03

    ------------------------------------------------
       NWT REQUIRED            5 OUTER ITERATIONS 
       AND A TOTAL OF          9 INNER ITERATIONS.
    ------------------------------------------------

 NO OUTPUT CONTROL FOR STRESS PERIOD   21   TIME STEP    5
 
 SOLVING FOR HEAD 
                                                   Max.-Head-Change                         Max.-Flux-Residual
  Residual-Control   Outer-Iter.   Inner-Iter.     Column Row Layer    Maximum-Head-Change  Column Row Layer    Maximum-Flux-Residual          L2-NORM 
          0                 1           2             5    8     1       0.7345647094E-01       5    8    1         0.3995344031E+01      0.9396137855E+01
          0                 2           2             5    7     1      -0.9126790986E-01       5    8    1        -0.5020260350E+01      0.1217028235E+02
          0                 3           2             4    7     1      -0.2684780823E-01       4    7    1        -0.1441052709E+01      0.3515365811E+01
          0                 4           2             4    7     1       0.2100308301E-03       4    7    1         0.1160289322E-01      0.2748602575E-01
          0                 5           1             4    7     1      -0.8359305072E-05       4    7    1        -0.4746885111E-03      0.1123486544E-02

    ------------------------------------------------
       NWT REQUIRED            5 OUTER ITERATIONS 
       AND A TOTAL OF          9 INNER ITERATIONS.
    ------------------------------------------------

 NO OUTPUT CONTROL FOR STRESS PERIOD   21   TIME STEP    6
 
 SOLVING FOR HEAD 
                                                   Max.-Head-Change                         Max.-Flux-Residual
  Residual-Control   Outer-Iter.   Inner-Iter.     Column Row Layer    Maximum-Head-Change  Column Row Layer    Maximum-Flux-Residual          L2-NORM 
          0                 1           2             5    8     1       0.7374197117E-01       5    8    1         0.4010036187E+01      0.9456962250E+01
          0                 2           2             5    7     1      -0.9180469594E-01       5    8    1        -0.5047613669E+01      0.1224037318E+02
          0                 3           2             4    7     1      -0.2642591000E-01       4    7    1        -0.1418402365E+01      0.3460189121E+01
          0                 4           2             4    7     1       0.4008952305E-03       4    7    1         0.2213214052E-01      0.5326536705E-01
          0                 5           1             4    7     1      -0.1595578024E-04       4    7    1        -0.9054497532E-03      0.2178832832E-02

    ------------------------------------------------
       NWT REQUIRED            5 OUTER ITERATIONS 
       AND A TOTAL OF          9 INNER ITERATIONS.
    ------------------------------------------------

 NO OUTPUT CONTROL FOR STRESS PERIOD   21   TIME STEP    7
 
 SOLVING FOR HEAD 
                                                   Max.-Head-Change                         Max.-Flux-Residual
  Residual-Control   Outer-Iter.   Inner-Iter.     Column Row Layer    Maximum-Head-Change  Column Row Layer    Maximum-Flux-Residual          L2-NORM 
          0                 1           2             5    8     1       0.7402599337E-01       5    8    1         0.4024673607E+01      0.9516690425E+01
          0                 2           2             5    7     1      -0.9235592978E-01       5    8    1        -0.5075826975E+01      0.1231244769E+02
          0                 3           2             4    7     1      -0.2614691544E-01       4    7    1        -0.1403421570E+01      0.3423790202E+01
          0                 4           2             4    7     1       0.6312694680E-03       4    7    1         0.3484104197E-01      0.8440344378E-01
          0                 5           1             4    7     1      -0.2512476211E-04       4    7    1        -0.1425382185E-02      0.3453223154E-02

    ------------------------------------------------
       NWT REQUIRED            5 OUTER ITERATIONS 
       AND A TOTAL OF          9 INNER ITERATIONS.
    ------------------------------------------------

 NO OUTPUT CONTROL FOR STRESS PERIOD   21   TIME STEP    8
 
 SOLVING FOR HEAD 
                                                   Max.-Head-Change                         Max.-Flux-Residual
  Residual-Control   Outer-Iter.   Inner-Iter.     Column Row Layer    Maximum-Head-Change  Column Row Layer    Maximum-Flux-Residual          L2-NORM 
          0                 1           2             5    8     1       0.7431175051E-01       5    8    1         0.4039432326E+01      0.9575730293E+01
          0                 2           2             5    7     1      -0.9289043177E-01       5    8    1        -0.5103215086E+01      0.1238237404E+02
          0                 3           2             4    7     1      -0.2587802317E-01       4    7    1        -0.1388983168E+01      0.3388711060E+01
          0                 4           2             4    7     1       0.8525570899E-03       4    7    1         0.4704861336E-01      0.1143197449E+00
          0                 5           1             4    7     1      -0.3393209385E-04       4    7    1        -0.1924804781E-02      0.4677492458E-02

    ------------------------------------------------
       NWT REQUIRED            5 OUTER ITERATIONS 
       AND A TOTAL OF          9 INNER ITERATIONS.
    ------------------------------------------------

 NO OUTPUT CONTROL FOR STRESS PERIOD   21   TIME STEP    9
 
 SOLVING FOR HEAD 
                                                   Max.-Head-Change                         Max.-Flux-Residual
  Residual-Control   Outer-Iter.   Inner-Iter.     Column Row Layer    Maximum-Head-Change  Column Row Layer    Maximum-Flux-Residual          L2-NORM 
          0                 1           2             5    8     1       0.7459867111E-01       5    8    1         0.4054278821E+01      0.9634086360E+01
          0                 2           2             5    7     1      -0.9340052611E-01       5    8    1        -0.5129354079E+01      0.1244912664E+02
          0                 3           2             4    7     1      -0.2558242578E-01       4    7    1        -0.1373111791E+01      0.3350113746E+01
          0                 4           2             4    7     1       0.1051887797E-02       4    7    1         0.5804483005E-01      0.1412708774E+00
          0                 5           1             4    7     1      -0.4186553210E-04       4    7    1        -0.2374669908E-02      0.5780380273E-02

    ------------------------------------------------
       NWT REQUIRED            5 OUTER ITERATIONS 
       AND A TOTAL OF          9 INNER ITERATIONS.
    ------------------------------------------------

 NO OUTPUT CONTROL FOR STRESS PERIOD   21   TIME STEP   10
 
 SOLVING FOR HEAD 
                                                   Max.-Head-Change                         Max.-Flux-Residual
  Residual-Control   Outer-Iter.   Inner-Iter.     Column Row Layer    Maximum-Head-Change  Column Row Layer    Maximum-Flux-Residual          L2-NORM 
          0                 1           2             5    8     1       0.7488573354E-01       5    8    1         0.4069155578E+01      0.9691641636E+01
          0                 2           2             5    7     1      -0.9389659266E-01       5    8    1        -0.5154800870E+01      0.1251407454E+02
          0                 3           2             4    7     1      -0.2529905051E-01       4    7    1        -0.1357896563E+01      0.3313115843E+01
          0                 4           2             4    7     1       0.1244212192E-02       4    7    1         0.6865449226E-01      0.1672756612E+00
          0                 5           1             4    7     1      -0.4952011709E-04       4    7    1        -0.2808720782E-02      0.6844525055E-02

    ------------------------------------------------
       NWT REQUIRED            5 OUTER ITERATIONS 
       AND A TOTAL OF          9 INNER ITERATIONS.
    ------------------------------------------------

 NO OUTPUT CONTROL FOR STRESS PERIOD   21   TIME STEP   11
 
 SOLVING FOR HEAD 
                                                   Max.-Head-Change                         Max.-Flux-Residual
  Residual-Control   Outer-Iter.   Inner-Iter.     Column Row Layer    Maximum-Head-Change  Column Row Layer    Maximum-Flux-Residual          L2-NORM 
          0                 1           2             5    8     1       0.7517245648E-01       5    8    1         0.4084034795E+01      0.9748413980E+01
          0                 2           2             5    7     1      -0.9437935654E-01       5    8    1        -0.5179589396E+01      0.1257731048E+02
          0                 3           2             4    7     1      -0.2502699239E-01       4    7    1        -0.1343288904E+01      0.3277598595E+01
          0                 4           2             4    7     1       0.1429658735E-02       4    7    1         0.7888468951E-01      0.1923510195E+00
          0                 5           1             4    7     1      -0.5690096167E-04       4    7    1        -0.3227247432E-02      0.7870628875E-02

    ------------------------------------------------
       NWT REQUIRED            5 OUTER ITERATIONS 
       AND A TOTAL OF          9 INNER ITERATIONS.
    ------------------------------------------------

 NO OUTPUT CONTROL FOR STRESS PERIOD   21   TIME STEP   12
 
 SOLVING FOR HEAD 
                                                   Max.-Head-Change                         Max.-Flux-Residual
  Residual-Control   Outer-Iter.   Inner-Iter.     Column Row Layer    Maximum-Head-Change  Column Row Layer    Maximum-Flux-Residual          L2-NORM 
          0                 1           2             5    8     1       0.7545882467E-01       5    8    1         0.4098914291E+01      0.9804418496E+01
          0                 2           2             5    7     1      -0.9484949966E-01       5    8    1        -0.5203753294E+01      0.1263892162E+02
          0                 3           2             4    7     1      -0.2476557510E-01       4    7    1        -0.1329252518E+01      0.3243473186E+01
          0                 4           2             4    7     1       0.1608578903E-02       4    7    1         0.8875481510E-01      0.2165442452E+00
          0                 5           1             4    7     1      -0.6402205375E-04       4    7    1        -0.3631043217E-02      0.8860628759E-02

    ------------------------------------------------
       NWT REQUIRED            5 OUTER ITERATIONS 
       AND A TOTAL OF          9 INNER ITERATIONS.
    ------------------------------------------------

 NO OUTPUT CONTROL FOR STRESS PERIOD   21   TIME STEP   13
 
 SOLVING FOR HEAD 
                                                   Max.-Head-Change                         Max.-Flux-Residual
  Residual-Control   Outer-Iter.   Inner-Iter.     Column Row Layer    Maximum-Head-Change  Column Row Layer    Maximum-Flux-Residual          L2-NORM 
          0                 1           2             5    8     1       0.7574472819E-01       5    8    1         0.4113778981E+01      0.9859660390E+01
          0                 2           2             5    7     1      -0.9530765547E-01       5    8    1        -0.5227321576E+01      0.1269898388E+02
          0                 3           2             4    7     1      -0.2451414262E-01       4    7    1        -0.1315752191E+01      0.3210653464E+01
          0                 4           2             4    7     1       0.1669557036E-02       4    7    1         0.9211835698E-01      0.2247998596E+00
          0                 5           1             4    7     1      -0.6644900722E-04       4    7    1        -0.3768649273E-02      0.9198454242E-02

    ------------------------------------------------
       NWT REQUIRED            5 OUTER ITERATIONS 
       AND A TOTAL OF          9 INNER ITERATIONS.
    ------------------------------------------------

 NO OUTPUT CONTROL FOR STRESS PERIOD   21   TIME STEP   14
 
 SOLVING FOR HEAD 
                                                   Max.-Head-Change                         Max.-Flux-Residual
  Residual-Control   Outer-Iter.   Inner-Iter.     Column Row Layer    Maximum-Head-Change  Column Row Layer    Maximum-Flux-Residual          L2-NORM 
          0                 1           2             5    8     1       0.7603341451E-01       5    8    1         0.4128809396E+01      0.9914480822E+01
          0                 2           2             5    7     1      -0.9574952314E-01       5    8    1        -0.5250069107E+01      0.1275693151E+02
          0                 3           2             4    7     1      -0.2425120111E-01       4    7    1        -0.1301634424E+01      0.3176312973E+01
          0                 4           2             4    7     1       0.1651649215E-02       4    7    1         0.9112997046E-01      0.2223952278E+00
          0                 5           1             4    7     1      -0.6573626899E-04       4    7    1        -0.3728214365E-02      0.9100064371E-02

    ------------------------------------------------
       NWT REQUIRED            5 OUTER ITERATIONS 
       AND A TOTAL OF          9 INNER ITERATIONS.
    ------------------------------------------------

 NO OUTPUT CONTROL FOR STRESS PERIOD   21   TIME STEP   15
 
 SOLVING FOR HEAD 
                                                   Max.-Head-Change                         Max.-Flux-Residual
  Residual-Control   Outer-Iter.   Inner-Iter.     Column Row Layer    Maximum-Head-Change  Column Row Layer    Maximum-Flux-Residual          L2-NORM 
          0                 1           2             5    8     1       0.7632583853E-01       5    8    1         0.4144067141E+01      0.9969068919E+01
          0                 2           2             5    7     1      -0.9613966516E-01       5    8    1        -0.5270073237E+01      0.1280806352E+02
          0                 3           2             4    7     1      -0.2382501478E-01       4    7    1        -0.1278756034E+01      0.3120507022E+01
          0                 4           2             4    7     1       0.1622623483E-02       4    7    1         0.8952824546E-01      0.2184875122E+00
          0                 5           1             4    7     1      -0.6458103372E-04       4    7    1        -0.3662687498E-02      0.8940167216E-02

    ------------------------------------------------
       NWT REQUIRED            5 OUTER ITERATIONS 
       AND A TOTAL OF          9 INNER ITERATIONS.
    ------------------------------------------------

 NO OUTPUT CONTROL FOR STRESS PERIOD   21   TIME STEP   16
 
 SOLVING FOR HEAD 
                                                   Max.-Head-Change                         Max.-Flux-Residual
  Residual-Control   Outer-Iter.   Inner-Iter.     Column Row Layer    Maximum-Head-Change  Column Row Layer    Maximum-Flux-Residual          L2-NORM 
          0                 1           2             5    8     1       0.7661532786E-01       5    8    1         0.4159179454E+01      0.1002273328E+02
          0                 2           2             5    7     1      -0.9653243585E-01       5    8    1        -0.5290260237E+01      0.1285957391E+02
          0                 3           2             4    7     1      -0.2346161754E-01       4    7    1        -0.1259247542E+01      0.3072949183E+01
          0                 4           2             4    7     1       0.1597874047E-02       4    7    1         0.8816244914E-01      0.2151573427E+00
          0                 5           1             4    7     1      -0.6359599639E-04       4    7    1        -0.3606812570E-02      0.8803903410E-02

    ------------------------------------------------
       NWT REQUIRED            5 OUTER ITERATIONS 
       AND A TOTAL OF          9 INNER ITERATIONS.
    ------------------------------------------------

 NO OUTPUT CONTROL FOR STRESS PERIOD   21   TIME STEP   17
 
 SOLVING FOR HEAD 
                                                   Max.-Head-Change                         Max.-Flux-Residual
  Residual-Control   Outer-Iter.   Inner-Iter.     Column Row Layer    Maximum-Head-Change  Column Row Layer    Maximum-Flux-Residual          L2-NORM 
          0                 1           2             5    8     1       0.7690341204E-01       5    8    1         0.4174230106E+01      0.1007568637E+02
          0                 2           2             5    7     1      -0.9691189892E-01       5    8    1        -0.5309767299E+01      0.1290934955E+02
          0                 3           2             4    7     1      -0.2309153966E-01       4    7    1        -0.1239380728E+01      0.3024507571E+01
          0                 4           2             4    7     1       0.1572669619E-02       4    7    1         0.8677156587E-01      0.2117652886E+00
          0                 5           1             4    7     1      -0.6259285024E-04       4    7    1        -0.3549911299E-02      0.8665107960E-02

    ------------------------------------------------
       NWT REQUIRED            5 OUTER ITERATIONS 
       AND A TOTAL OF          9 INNER ITERATIONS.
    ------------------------------------------------

 NO OUTPUT CONTROL FOR STRESS PERIOD   21   TIME STEP   18
 
 SOLVING FOR HEAD 
                                                   Max.-Head-Change                         Max.-Flux-Residual
  Residual-Control   Outer-Iter.   Inner-Iter.     Column Row Layer    Maximum-Head-Change  Column Row Layer    Maximum-Flux-Residual          L2-NORM 
          0                 1           2             5    8     1       0.7718955670E-01       5    8    1         0.4189188880E+01      0.1012787555E+02
          0                 2           2             5    7     1      -0.9728349278E-01       5    8    1        -0.5328885613E+01      0.1295810836E+02
          0                 3           2             4    7     1      -0.2273528395E-01       4    7    1        -0.1220255897E+01      0.2977877665E+01
          0                 4           2             4    7     1       0.1548406560E-02       4    7    1         0.8543262905E-01      0.2085000833E+00
          0                 5           1             4    7     1      -0.6162717099E-04       4    7    1        -0.3495135185E-02      0.8531500650E-02

    ------------------------------------------------
       NWT REQUIRED            5 OUTER ITERATIONS 
       AND A TOTAL OF          9 INNER ITERATIONS.
    ------------------------------------------------

 NO OUTPUT CONTROL FOR STRESS PERIOD   21   TIME STEP   19
 
 SOLVING FOR HEAD 
                                                   Max.-Head-Change                         Max.-Flux-Residual
  Residual-Control   Outer-Iter.   Inner-Iter.     Column Row Layer    Maximum-Head-Change  Column Row Layer    Maximum-Flux-Residual          L2-NORM 
          0                 1           2             5    8     1       0.7747381224E-01       5    8    1         0.4204057578E+01      0.1017931882E+02
          0                 2           2             5    7     1      -0.9764763890E-01       5    8    1        -0.5347488769E+01      0.1300569851E+02
          0                 3           2             4    7     1      -0.2238603763E-01       4    7    1        -0.1201507283E+01      0.2932163377E+01
          0                 4           2             4    7     1       0.1524620877E-02       4    7    1         0.8412003095E-01      0.2052989950E+00
          0                 5           1             4    7     1      -0.6068049131E-04       4    7    1        -0.3441436555E-02      0.8400518700E-02

    ------------------------------------------------
       NWT REQUIRED            5 OUTER ITERATIONS 
       AND A TOTAL OF          9 INNER ITERATIONS.
    ------------------------------------------------

 NO OUTPUT CONTROL FOR STRESS PERIOD   21   TIME STEP   20
 
 SOLVING FOR HEAD 
                                                   Max.-Head-Change                         Max.-Flux-Residual
  Residual-Control   Outer-Iter.   Inner-Iter.     Column Row Layer    Maximum-Head-Change  Column Row Layer    Maximum-Flux-Residual          L2-NORM 
          0                 1           2             5    8     1       0.7776240889E-01       5    8    1         0.4218906338E+01      0.1023002175E+02
          0                 2           2             4    7     1      -0.9801254385E-01       5    8    1        -0.5365823478E+01      0.1305223366E+02
          0                 3           2             4    7     1      -0.2204545055E-01       4    7    1        -0.1183223639E+01      0.2887582646E+01
          0                 4           2             4    7     1       0.1501424938E-02       4    7    1         0.8283998536E-01      0.2021772558E+00
          0                 5           1             4    7     1      -0.5975728452E-04       4    7    1        -0.3389069683E-02      0.8272781030E-02

    ------------------------------------------------
       NWT REQUIRED            5 OUTER ITERATIONS 
       AND A TOTAL OF          9 INNER ITERATIONS.
    ------------------------------------------------

 NO OUTPUT CONTROL FOR STRESS PERIOD   21   TIME STEP   21
 
 SOLVING FOR HEAD 
                                                   Max.-Head-Change                         Max.-Flux-Residual
  Residual-Control   Outer-Iter.   Inner-Iter.     Column Row Layer    Maximum-Head-Change  Column Row Layer    Maximum-Flux-Residual          L2-NORM 
          0                 1           2             5    8     1       0.7804762600E-01       5    8    1         0.4233866035E+01      0.1027999857E+02
          0                 2           2             4    7     1      -0.9837943447E-01       5    8    1        -0.5383717843E+01      0.1309773931E+02
          0                 3           2             4    7     1      -0.2171249478E-01       4    7    1        -0.1165349764E+01      0.2844000322E+01
          0                 4           2             4    7     1       0.1478748734E-02       4    7    1         0.8158862764E-01      0.1991254341E+00
          0                 5           1             4    7     1      -0.5885476267E-04       4    7    1        -0.3337876397E-02      0.8147908264E-02

    ------------------------------------------------
       NWT REQUIRED            5 OUTER ITERATIONS 
       AND A TOTAL OF          9 INNER ITERATIONS.
    ------------------------------------------------

 NO OUTPUT CONTROL FOR STRESS PERIOD   21   TIME STEP   22
 
 SOLVING FOR HEAD 
                                                   Max.-Head-Change                         Max.-Flux-Residual
  Residual-Control   Outer-Iter.   Inner-Iter.     Column Row Layer    Maximum-Head-Change  Column Row Layer    Maximum-Flux-Residual          L2-NORM 
          0                 1           2             5    8     1       0.7832992113E-01       5    8    1         0.4248676326E+01      0.1032924949E+02
          0                 2           2             4    7     1      -0.9873830506E-01       5    8    1        -0.5401230104E+01      0.1314226416E+02
          0                 3           2             4    7     1      -0.2138694935E-01       4    7    1        -0.1147873754E+01      0.2801387290E+01
          0                 4           2             4    7     1       0.1456577215E-02       4    7    1         0.8036512432E-01      0.1961414839E+00
          0                 5           1             4    7     1      -0.5797232708E-04       4    7    1        -0.3287822636E-02      0.8025809836E-02

    ------------------------------------------------
       NWT REQUIRED            5 OUTER ITERATIONS 
       AND A TOTAL OF          9 INNER ITERATIONS.
    ------------------------------------------------

 NO OUTPUT CONTROL FOR STRESS PERIOD   21   TIME STEP   23
 
 SOLVING FOR HEAD 
                                                   Max.-Head-Change                         Max.-Flux-Residual
  Residual-Control   Outer-Iter.   Inner-Iter.     Column Row Layer    Maximum-Head-Change  Column Row Layer    Maximum-Flux-Residual          L2-NORM 
          0                 1           2             5    8     1       0.7860926029E-01       5    8    1         0.4263335085E+01      0.1037777354E+02
          0                 2           2             4    7     1      -0.9908949952E-01       5    8    1        -0.5418376737E+01      0.1318584921E+02
          0                 3           2             4    7     1      -0.2106850591E-01       4    7    1        -0.1130779053E+01      0.2759703337E+01
          0                 4           2             4    7     1       0.1434889381E-02       4    7    1         0.7916831632E-01      0.1932225852E+00
          0                 5           1             4    7     1      -0.5710914332E-04       4    7    1        -0.3238860993E-02      0.7906370979E-02

    ------------------------------------------------
       NWT REQUIRED            5 OUTER ITERATIONS 
       AND A TOTAL OF          9 INNER ITERATIONS.
    ------------------------------------------------

 NO OUTPUT CONTROL FOR STRESS PERIOD   21   TIME STEP   24
 
 SOLVING FOR HEAD 
                                                   Max.-Head-Change                         Max.-Flux-Residual
  Residual-Control   Outer-Iter.   Inner-Iter.     Column Row Layer    Maximum-Head-Change  Column Row Layer    Maximum-Flux-Residual          L2-NORM 
          0                 1           2             5    8     1       0.7888576946E-01       5    8    1         0.4277848386E+01      0.1042558661E+02
          0                 2           2             4    7     1      -0.9943332084E-01       5    8    1        -0.5435172179E+01      0.1322853181E+02
          0                 3           2             4    7     1      -0.2075693898E-01       4    7    1        -0.1114053551E+01      0.2718918998E+01
          0                 4           2             4    7     1       0.1413669876E-02       4    7    1         0.7799735595E-01      0.1903666625E+00
          0                 5           1             4    7     1      -0.5626459854E-04       4    7    1        -0.3190956779E-02      0.7789513871E-02

    ------------------------------------------------
       NWT REQUIRED            5 OUTER ITERATIONS 
       AND A TOTAL OF          9 INNER ITERATIONS.
    ------------------------------------------------

 NO OUTPUT CONTROL FOR STRESS PERIOD   21   TIME STEP   25
 
 SOLVING FOR HEAD 
                                                   Max.-Head-Change                         Max.-Flux-Residual
  Residual-Control   Outer-Iter.   Inner-Iter.     Column Row Layer    Maximum-Head-Change  Column Row Layer    Maximum-Flux-Residual          L2-NORM 
          0                 1           2             5    8     1       0.7915928271E-01       5    8    1         0.4292207274E+01      0.1047269073E+02
          0                 2           2             4    7     1      -0.9977002197E-01       5    8    1        -0.5451628884E+01      0.1327034335E+02
          0                 3           2             4    7     1      -0.2045188436E-01       4    7    1        -0.1097677702E+01      0.2678986345E+01
          0                 4           2             4    7     1       0.1392893896E-02       4    7    1         0.7685087463E-01      0.1875703865E+00
          0                 5           1             4    7     1      -0.5543770632E-04       4    7    1        -0.3144053979E-02      0.7675094539E-02

    ------------------------------------------------
       NWT REQUIRED            5 OUTER ITERATIONS 
       AND A TOTAL OF          9 INNER ITERATIONS.
    ------------------------------------------------

 NO OUTPUT CONTROL FOR STRESS PERIOD   21   TIME STEP   26
 
 SOLVING FOR HEAD 
                                                   Max.-Head-Change                         Max.-Flux-Residual
  Residual-Control   Outer-Iter.   Inner-Iter.     Column Row Layer    Maximum-Head-Change  Column Row Layer    Maximum-Flux-Residual          L2-NORM 
          0                 1           2             5    8     1       0.7942964960E-01       5    8    1         0.4306402985E+01      0.1051909985E+02
          0                 2           2             4    7     1      -0.1000999130E+00       5    8    1        -0.5467760283E+01      0.1331132210E+02
          0                 3           2             4    7     1      -0.2015316047E-01       4    7    1        -0.1081641752E+01      0.2639881861E+01
          0                 4           2             4    7     1       0.1372549074E-02       4    7    1         0.7572818962E-01      0.1848320821E+00
          0                 5           1             4    7     1      -0.5462797449E-04       4    7    1        -0.3098124694E-02      0.7563047268E-02

    ------------------------------------------------
       NWT REQUIRED            5 OUTER ITERATIONS 
       AND A TOTAL OF          9 INNER ITERATIONS.
    ------------------------------------------------

 NO OUTPUT CONTROL FOR STRESS PERIOD   21   TIME STEP   27
 
 SOLVING FOR HEAD 
                                                   Max.-Head-Change                         Max.-Flux-Residual
  Residual-Control   Outer-Iter.   Inner-Iter.     Column Row Layer    Maximum-Head-Change  Column Row Layer    Maximum-Flux-Residual          L2-NORM 
          0                 1           2             5    8     1       0.7969716296E-01       5    8    1         0.4320451262E+01      0.1056482525E+02
          0                 2           2             4    7     1      -0.1004365720E+00       5    8    1        -0.5483578916E+01      0.1335149497E+02
          0                 3           2             4    7     1      -0.1985996335E-01       4    7    1        -0.1065874903E+01      0.2601556823E+01
          0                 4           2             4    7     1       0.1352580658E-02       4    7    1         0.7462434451E-01      0.1821483567E+00
          0                 5           1             4    7     1      -0.5383322402E-04       4    7    1        -0.3052966152E-02      0.7453232324E-02

    ------------------------------------------------
       NWT REQUIRED            5 OUTER ITERATIONS 
       AND A TOTAL OF          9 INNER ITERATIONS.
    ------------------------------------------------

 NO OUTPUT CONTROL FOR STRESS PERIOD   21   TIME STEP   28
 
 SOLVING FOR HEAD 
                                                   Max.-Head-Change                         Max.-Flux-Residual
  Residual-Control   Outer-Iter.   Inner-Iter.     Column Row Layer    Maximum-Head-Change  Column Row Layer    Maximum-Flux-Residual          L2-NORM 
          0                 1           2             5    8     1       0.7996225531E-01       5    8    1         0.4334354506E+01      0.1060988848E+02
          0                 2           2             4    7     1      -0.1007394677E+00       5    8    1        -0.5499098848E+01      0.1339090033E+02
          0                 3           2             4    7     1      -0.1957391698E-01       4    7    1        -0.1050522928E+01      0.2563981906E+01
          0                 4           2             4    7     1       0.1333099245E-02       4    7    1         0.7354954429E-01      0.1795171504E+00
          0                 5           1             4    7     1      -0.5305785625E-04       4    7    1        -0.3008995845E-02      0.7345567939E-02

    ------------------------------------------------
       NWT REQUIRED            5 OUTER ITERATIONS 
       AND A TOTAL OF          9 INNER ITERATIONS.
    ------------------------------------------------

 NO OUTPUT CONTROL FOR STRESS PERIOD   21   TIME STEP   29
 
 SOLVING FOR HEAD 
                                                   Max.-Head-Change                         Max.-Flux-Residual
  Residual-Control   Outer-Iter.   Inner-Iter.     Column Row Layer    Maximum-Head-Change  Column Row Layer    Maximum-Flux-Residual          L2-NORM 
          0                 1           2             5    8     1       0.8022434852E-01       5    8    1         0.4348112281E+01      0.1065424676E+02
          0                 2           2             4    7     1      -0.1010491189E+00       5    8    1        -0.5514329578E+01      0.1342955878E+02
          0                 3           2             4    7     1      -0.1929271019E-01       4    7    1        -0.1035428120E+01      0.2527157729E+01
          0                 4           2             4    7     1       0.1313947435E-02       4    7    1         0.7249274838E-01      0.1769385087E+00
          0                 5           1             4    7     1      -0.5229560683E-04       4    7    1        -0.2965762074E-02      0.7240050867E-02

    ------------------------------------------------
       NWT REQUIRED            5 OUTER ITERATIONS 
       AND A TOTAL OF          9 INNER ITERATIONS.
    ------------------------------------------------

 NO OUTPUT CONTROL FOR STRESS PERIOD   21   TIME STEP   30



 STREAM LISTING     PERIOD     21   STEP       30

 LAYER ROW COL. STREAM  RCH.  FLOW INTO     FLOW TO   FLOW OUT OF   OVRLND.     DIRECT     STREAM       STREAM     STREAM     STREAM   STREAMBED  STREAMBED
                SEG.NO.  NO.  STRM. RCH.    AQUIFER    STRM. RCH.    RUNOFF     PRECIP       ET          HEAD       DEPTH      WIDTH   CONDCTNC.   GRADIENT

   1    1    1     1     1    1.3875E+01  1.7894E-01   1.3696E+01  0.000E+00  0.000E+00  0.000E+00  1.09404E+03  9.877E-01  9.972E+00  4.487E-02  1.329E+00
   1    2    2     1     2    1.3696E+01  2.7574E-01   1.3421E+01  0.000E+00  0.000E+00  0.000E+00  1.08904E+03  9.829E-01  9.890E+00  6.923E-02  1.328E+00
   1    3    3     1     3    1.3421E+01  2.3381E-01   1.3187E+01  0.000E+00  0.000E+00  0.000E+00  1.08340E+03  9.775E-01  9.797E+00  5.878E-02  1.326E+00
   1    3    4     1     4    1.3187E+01  2.1419E-01   1.2973E+01  0.000E+00  0.000E+00  0.000E+00  1.07838E+03  9.727E-01  9.715E+00  5.392E-02  1.324E+00
   1    4    5     2     1    1.0973E+01  2.9101E-01   1.0682E+01  0.000E+00  0.000E+00  0.000E+00  1.07266E+03  7.309E-01  1.200E+01  7.800E-02  1.244E+00
   1    5    6     2     2    1.0682E+01  2.2323E-01   1.0458E+01  0.000E+00  0.000E+00  0.000E+00  1.06723E+03  7.204E-01  1.200E+01  6.000E-02  1.240E+00
   1    6    6     2     3    1.0458E+01  2.2268E-01   1.0236E+01  0.000E+00  0.000E+00  0.000E+00  1.06250E+03  7.113E-01  1.200E+01  6.000E-02  1.237E+00
   1    7    6     2     4    1.0236E+01  2.2212E-01   1.0013E+01  0.000E+00  0.000E+00  0.000E+00  1.05778E+03  7.021E-01  1.200E+01  6.000E-02  1.234E+00
   1    8    6     2     5    1.0013E+01  2.2157E-01   9.7919E+00  0.000E+00  0.000E+00  0.000E+00  1.05305E+03  6.928E-01  1.200E+01  6.000E-02  1.231E+00
   1    3    5     3     1    2.0000E+00  2.8252E-01   1.7175E+00  0.000E+00  0.000E+00  0.000E+00  1.07555E+03  1.909E+00  9.636E+00  7.227E-02  1.955E+00
   1    3    6     3     2    1.7175E+00  2.4905E-01   1.4684E+00  0.000E+00  0.000E+00  0.000E+00  1.07264E+03  1.727E+00  8.909E+00  6.682E-02  1.864E+00
   1    3    7     3     3    1.4684E+00  1.9718E-01   1.2712E+00  0.000E+00  0.000E+00  0.000E+00  1.06987E+03  1.555E+00  8.218E+00  5.547E-02  1.777E+00
   1    4    8     3     4    1.2712E+00  2.2567E-01   1.0456E+00  0.000E+00  0.000E+00  0.000E+00  1.06682E+03  1.364E+00  7.455E+00  6.709E-02  1.682E+00
   1    5    8     3     5    1.0456E+00  1.5790E-01   8.8768E-01  0.000E+00  0.000E+00  0.000E+00  1.06362E+03  1.164E+00  6.655E+00  4.991E-02  1.582E+00
   1    6    8     3     6    8.8768E-01  5.5980E-02   8.3170E-01  0.000E+00  0.000E+00  0.000E+00  1.06158E+03  1.036E+00  6.145E+00  1.844E-02  1.518E+00
   1    5   10     4     1    1.0000E+01  9.0919E-02   9.9091E+00  0.000E+00  0.000E+00  0.000E+00  1.07836E+03  6.368E-01  1.000E+01  2.500E-02  1.212E+00
   1    5    9     4     2    9.9091E+00  1.8158E-01   9.7275E+00  0.000E+00  0.000E+00  0.000E+00  1.07154E+03  6.315E-01  1.000E+01  5.000E-02  1.211E+00
   1    6    8     4     3    9.7275E+00  1.2689E-01   9.6006E+00  0.000E+00  0.000E+00  0.000E+00  1.06381E+03  6.256E-01  1.000E+01  3.500E-02  1.209E+00
   1    6    8     5     1    1.0432E+01  2.2686E-01   1.0205E+01  0.000E+00  0.000E+00  0.000E+00  1.05868E+03  6.790E-01  1.542E+01  6.166E-02  1.226E+00
   1    7    7     5     2    1.0205E+01  2.7894E-01   9.9265E+00  0.000E+00  0.000E+00  0.000E+00  1.05417E+03  6.732E-01  1.519E+01  7.594E-02  1.224E+00
   1    8    7     5     3    9.9265E+00  1.9221E-01   9.7343E+00  0.000E+00  0.000E+00  0.000E+00  1.04992E+03  6.676E-01  1.497E+01  5.241E-02  1.223E+00
   1    8    6     5     4    9.7343E+00  1.3577E-01   9.5985E+00  0.000E+00  0.000E+00  0.000E+00  1.04691E+03  6.637E-01  1.482E+01  3.706E-02  1.221E+00
   1    9    6     6     1    9.5985E+00  2.2097E-01   9.3776E+00  0.000E+00  0.000E+00  0.000E+00  1.04341E+03  6.828E-01  1.200E+01  6.000E-02  1.228E+00
   1   10    7     6     2    9.3776E+00  2.2039E-01   9.1572E+00  0.000E+00  0.000E+00  0.000E+00  1.03885E+03  6.732E-01  1.200E+01  6.000E-02  1.224E+00
   1   11    7     6     3    9.1572E+00  2.1981E-01   8.9374E+00  0.000E+00  0.000E+00  0.000E+00  1.03430E+03  6.636E-01  1.200E+01  6.000E-02  1.221E+00
   1   12    7     6     4    8.9374E+00  2.1923E-01   8.7181E+00  0.000E+00  0.000E+00  0.000E+00  1.02974E+03  6.539E-01  1.200E+01  6.000E-02  1.218E+00
   1   13    7     6     5    8.7181E+00 -2.2202E-02   8.7403E+00  0.000E+00  0.000E+00  0.000E+00  1.02656E+03  6.495E-01  1.200E+01  2.400E-01 -3.084E-02
   1   14    9     7     1    1.5000E+02  1.3759E+00   1.4862E+02  0.000E+00  0.000E+00  0.000E+00  1.03987E+03  2.288E+00  5.529E+01  5.593E-01  8.200E-01
   1   13    8     7     2    1.4862E+02  1.9647E+00   1.4666E+02  0.000E+00  0.000E+00  0.000E+00  1.03478E+03  2.279E+00  5.525E+01  6.147E-01  1.065E+00
   1   13    7     7     3    1.4666E+02  1.6959E+00   1.4496E+02  0.000E+00  0.000E+00  0.000E+00  1.02969E+03  2.269E+00  5.521E+01  5.584E-01  1.012E+00
   1   13    6     8     1    1.5370E+02  1.0521E+00   1.5265E+02  0.000E+00  0.000E+00  0.000E+00  1.02471E+03  2.839E+00  4.117E+01  4.195E-01  8.360E-01
   1   13    5     8     2    1.5265E+02  3.1223E-01   1.5234E+02  0.000E+00  0.000E+00  0.000E+00  1.01846E+03  2.834E+00  4.110E+01  4.188E-01  2.485E-01
   1   13    4     8     3    1.5234E+02 -1.9445E+00   1.5428E+02  0.000E+00  0.000E+00  0.000E+00  1.01222E+03  2.840E+00  4.118E+01  4.196E+00 -1.545E-01
   1   13    3     8     4    1.5428E+02 -3.4005E+00   1.5768E+02  0.000E+00  0.000E+00  0.000E+00  1.00598E+03  2.858E+00  4.145E+01  4.224E+00 -2.684E-01
   1   13    2     8     5    1.5768E+02 -2.5224E+00   1.6021E+02  0.000E+00  0.000E+00  0.000E+00  9.99754E+02  2.879E+00  4.174E+01  4.254E+00 -1.977E-01
   1   13    1     8     6    1.6021E+02 -1.9685E+00   1.6218E+02  0.000E+00  0.000E+00  0.000E+00  9.94769E+02  2.894E+00  4.196E+01  2.566E+00 -2.557E-01
   1    8    6     9     1    9.7919E+00  0.0000E+00   9.7919E+00  0.000E+00  0.000E+00  0.000E+00  1.08099E+03  2.238E+00  4.000E+00  0.000E+00  1.746E+00
   1    8    5     9     2    9.7919E+00  0.0000E+00   9.7919E+00  0.000E+00  0.000E+00  0.000E+00  1.08049E+03  2.238E+00  4.000E+00  0.000E+00  1.746E+00





UNSATURATED ZONE PACKAGE VOLUMETRIC BUDGET FOR  TIME STEP    30 STRESS PERIOD   21
  ------------------------------------------------------------------------------



     CUMULATIVE VOLUMES      L**3       RATES FOR THIS TIME STEP      L**3/T
     ------------------                 ------------------------

           IN:                                      IN:
           ---                                      ---
        INFILTRATION =  1076016260.4699          INFILTRATION =          49.6064

          OUT:                                     OUT:
          ----                                     ----
              UZF ET =   824418530.8832                UZF ET =          49.5849
        UZF RECHARGE =       73224.0000          UZF RECHARGE =       0.0000E+00

            IN - OUT =   251524505.5867              IN - OUT =       2.1452E-02

          STORAGE:                                 STORAGE:
          --------                                 --------
      STORAGE CHANGE =   251524852.8201        STORAGE CHANGE =       2.1450E-02

 PERCENT DISCREPANCY IS DIFFERENCE BETWEEN IN-OUT MINUS CHANGE IN STORAGE
 DIVIDED BY THE AVERAGE OF IN AND OUT TIMES 100

 PERCENT DISCREPANCY =          -0.00     PERCENT DISCREPANCY =           0.00






1
  VOLUMETRIC BUDGET FOR AGRICULTURAL FIELDS AT  END OF TIME STEP   30, STRESS PERIOD  21
  ------------------------------------------------------------------------------

     CUMULATIVE VOLUMES      L**3       RATES FOR THIS TIME STEP      L**3/T
     ------------------                 ------------------------

           IN:                                      IN:
           ---                                      ---
               AG WELLS  =   675959680.0000                 AG WELLS  =          38.9667
      DIVERSION SEGMENTS =   355458912.0000        DIVERSION SEGMENTS =           9.7919
       IRRIGATION PONDS  =           0.0000         IRRIGATION PONDS  =           0.0000
           GW IRRIGATION =           0.0000             GW IRRIGATION =           0.0000
           SW IRRIGATION =           0.0000             SW IRRIGATION =           0.0000
        SYSTEM LOSSES GW =           0.0000          SYSTEM LOSSES GW =           0.0000
        SYSTEM LOSSES SW =           0.0000          SYSTEM LOSSES SW =           0.0000

                TOTAL IN =  1031418624.0000                  TOTAL IN =          48.7587

          OUT:                                     OUT:
          ----                                     ----
               AG WELLS  =           0.0000                 AG WELLS  =           0.0000
      DIVERSION SEGMENTS =           0.0000        DIVERSION SEGMENTS =           0.0000
       IRRIGATION PONDS  =           0.0000         IRRIGATION PONDS  =           0.0000
           GW IRRIGATION =   675959680.0000             GW IRRIGATION =          38.9667
           SW IRRIGATION =   355465568.0000             SW IRRIGATION =           9.7921
        SYSTEM LOSSES GW =           0.0000          SYSTEM LOSSES GW =           0.0000
        SYSTEM LOSSES SW =           0.0000          SYSTEM LOSSES SW =           0.0000

               TOTAL OUT =  1031425280.0000                 TOTAL OUT =          48.7589

                IN - OUT =       -6656.0000                  IN - OUT =      -1.9455E-04

     PERCENT DISCREPANCY =          -0.00         PERCENT DISCREPANCY =          -0.00



1
  VOLUMETRIC BUDGET FOR ENTIRE MODEL AT END OF TIME STEP   30, STRESS PERIOD  21
  ------------------------------------------------------------------------------

     CUMULATIVE VOLUMES      L**3       RATES FOR THIS TIME STEP      L**3/T
     ------------------                 ------------------------

           IN:                                      IN:
           ---                                      ---
             STORAGE     =   956794496.0000               STORAGE     =          37.1841
       CONSTANT HEAD     =           0.0000         CONSTANT HEAD     =           0.0000
     HEAD DEP BOUNDS     =    15176515.0000       HEAD DEP BOUNDS     =           0.2885
      STREAM LEAKAGE     =   623240064.0000        STREAM LEAKAGE     =          11.7659
        UZF RECHARGE     =       73223.9531          UZF RECHARGE     =           0.0000
               GW ET     =           0.0000                 GW ET     =           0.0000
     SURFACE LEAKAGE     =           0.0000       SURFACE LEAKAGE     =           0.0000
           AG WELLS      =           0.0000             AG WELLS      =           0.0000

                TOTAL IN =  1595284224.0000                  TOTAL IN =          49.2385

          OUT:                                     OUT:
          ----                                     ----
             STORAGE     =   369191168.0000               STORAGE     =           0.1271
       CONSTANT HEAD     =           0.0000         CONSTANT HEAD     =           0.0000
     HEAD DEP BOUNDS     =    15175029.0000       HEAD DEP BOUNDS     =           0.2864
      STREAM LEAKAGE     =   534963552.0000        STREAM LEAKAGE     =           9.8581
        UZF RECHARGE     =           0.0000          UZF RECHARGE     =           0.0000
               GW ET     =           0.0000                 GW ET     =           0.0000
     SURFACE LEAKAGE     =           0.0000       SURFACE LEAKAGE     =           0.0000
           AG WELLS      =   675959680.0000             AG WELLS      =          38.9667

               TOTAL OUT =  1595289472.0000                 TOTAL OUT =          49.2382

                IN - OUT =       -5248.0000                  IN - OUT =       2.2507E-04

     PERCENT DISCREPANCY =          -0.00         PERCENT DISCREPANCY =           0.00






         TIME SUMMARY AT END OF TIME STEP   30 IN STRESS PERIOD   21
                    SECONDS     MINUTES      HOURS       DAYS        YEARS
                    -----------------------------------------------------------
   TIME STEP LENGTH  87667.      1461.1      24.352      1.0147     2.77799E-03
 STRESS PERIOD TIME 2.63000E+06  43833.      730.56      30.440     8.33397E-02
         TOTAL TIME 5.26866E+07 8.78110E+05  14635.      609.80      1.6695    
1
1
                            STRESS PERIOD NO.   22, LENGTH =   2630000.    
                            -----------------------------------------------

                              NUMBER OF TIME STEPS =    30

                               MULTIPLIER FOR DELT =     1.000

                            INITIAL TIME STEP SIZE =   87666.66    

 REUSING NON-PARAMETER GHB CELLS FROM LAST STRESS PERIOD

      2 GHB CELLS

 REUSING STREAM SEGMENT DATA FROM LAST STRESS PERIOD



            AREAL INFILTRATION RATE
 READING ON UNIT   19 WITH FORMAT: (FREE)              

            1           2           3           4           5           6           7           8           9          10
 ........................................................................................................................
   1   1.0000E-10  2.0000E-10   0.000       0.000       0.000       0.000       0.000       0.000       0.000       0.000    
   2   2.0000E-10  1.0000E-10  2.0000E-10   0.000       0.000      8.0000E-10  8.0000E-10  5.0000E-10   0.000       0.000    
   3    0.000      5.0000E-10  1.0000E-10  1.0000E-10  8.0000E-10  8.0000E-10  5.0000E-10  5.0000E-10   0.000       0.000    
   4   8.0000E-10  5.0000E-10  1.0000E-10  1.0000E-10  1.0000E-10  1.0000E-10  1.0000E-10  1.0000E-10  2.0000E-10   0.000    
   5   8.0000E-10  5.0000E-10  1.0000E-10  1.0000E-10  1.0000E-10  1.0000E-10  1.0000E-10  1.0000E-10  1.0000E-10  1.0000E-10
   6   8.0000E-10  5.0000E-10  5.0000E-10  2.0000E-10  2.0000E-10  1.0000E-10  1.0000E-10  1.0000E-10  1.0000E-10  5.0000E-10
   7   8.0000E-10  5.0000E-10  5.0000E-10  2.0000E-10  2.0000E-10  1.0000E-10  1.0000E-10  2.0000E-10  2.0000E-10   0.000    
   8    0.000      5.0000E-10  5.0000E-10  2.0000E-10  2.0000E-10  1.0000E-10  1.0000E-10  2.0000E-10  5.0000E-10   0.000    
   9    0.000      5.0000E-10  5.0000E-10  2.0000E-10  2.0000E-10  1.0000E-10  1.0000E-10  2.0000E-10  5.0000E-10   0.000    
  10    0.000      5.0000E-10  5.0000E-10  2.0000E-10  2.0000E-10  1.0000E-10  1.0000E-10  2.0000E-10  5.0000E-10  8.0000E-10
  11    0.000      1.0000E-10  1.0000E-10  1.0000E-10  1.0000E-10  1.0000E-10  1.0000E-10  2.0000E-10  5.0000E-10   0.000    
  12   1.0000E-10  1.0000E-10  1.0000E-10  1.0000E-10  1.0000E-10  1.0000E-10  1.0000E-10  1.0000E-10  2.0000E-10   0.000    
  13   1.0000E-10  1.0000E-10  2.0000E-10  2.0000E-10  2.0000E-10  2.0000E-10  2.0000E-10  1.0000E-10  1.0000E-10   0.000    
  14    0.000      2.0000E-10  5.0000E-10  5.0000E-10  5.0000E-10  5.0000E-10  5.0000E-10  2.0000E-10  1.0000E-10   0.000    
  15    0.000       0.000      8.0000E-10  8.0000E-10  8.0000E-10  8.0000E-10   0.000       0.000       0.000       0.000    

                  ET RATE =  7.500000E-08

 USING ET EXTINCTION DEPTH FROM PREVIOUS STRESS PERIOD. CURRENT PERIOD IS:      22

 USING EXTINCTION WATER CONTENT FROM PREVIOUS STRESS PERIOD. CURRENT PERIOD IS:      22

 USING AIR ENTRY PRESSURE FROM PREVIOUS STRESS PERIOD. CURRENT PERIOD IS:      22

 USING ROOT PRESSURE HEAD FROM PREVIOUS STRESS PERIOD. CURRENT PERIOD IS:      22

 USING ROOT ACTIVITY FROM PREVIOUS STRESS PERIOD. CURRENT PERIOD IS:      22

 PROCESSING AG STRESS PERIOD DATA

 READING AG STRESS PERIOD DATA

 READING IRRIGATION SEGMENT

 READING IRRIGATION WELL

 READING SUPPLEMENTAL WELL

 NO IRRPOND OR REUSING IRRPOND DATA FROM LAST STRESS PERIOD

 END PROCESSING AG STRESS PERIOD DATA OPTIONS
 
 SOLVING FOR HEAD 
                                                   Max.-Head-Change                         Max.-Flux-Residual
  Residual-Control   Outer-Iter.   Inner-Iter.     Column Row Layer    Maximum-Head-Change  Column Row Layer    Maximum-Flux-Residual          L2-NORM 
          0                 1           2             5    8     1       0.8048070153E-01       5    8    1         0.4361716131E+01      0.1069961687E+02
          0                 2           2             5    8     1      -0.2347442178E-01       5    8    1        -0.1297584510E+01      0.3118505665E+01
          0                 3           2             5    8     1       0.1598521094E-02       5    8    1         0.9083095797E-01      0.2182955140E+00
          0                 4           1             5    8     1      -0.6360664945E-04       5    8    1        -0.3714991352E-02      0.8928298887E-02

    ------------------------------------------------
       NWT REQUIRED            4 OUTER ITERATIONS 
       AND A TOTAL OF          7 INNER ITERATIONS.
    ------------------------------------------------

 NO OUTPUT CONTROL FOR STRESS PERIOD   22   TIME STEP    1
 
 SOLVING FOR HEAD 
                                                   Max.-Head-Change                         Max.-Flux-Residual
  Residual-Control   Outer-Iter.   Inner-Iter.     Column Row Layer    Maximum-Head-Change  Column Row Layer    Maximum-Flux-Residual          L2-NORM 
          0                 1           2             5    8     1       0.7770159492E-01       5    8    1         0.4207782197E+01      0.1042875161E+02
          0                 2           2             5    8     1      -0.7814787649E-02       5    8    1        -0.4349015110E+00      0.1075149482E+01
          0                 3           2             4    7     1      -0.8790289773E-02       4    7    1        -0.4717969367E+00      0.1154639275E+01
          0                 4           2             4    7     1       0.9513079053E-02       4    7    1         0.5247945422E+00      0.1284948963E+01
          0                 5           2             4    7     1      -0.2219848072E-02       4    7    1        -0.1258718675E+00      0.3097568711E+00
          0                 6           2             4    7     1       0.9405681580E-03       5    8    1         0.5481598819E-01      0.1356168914E+00
          0                 7           2             4    7     1       0.9390117350E-03       4    7    1         0.5472333686E-01      0.1340974020E+00
          0                 8           2             4    7     1       0.1531714161E-03       4    7    1         0.8926321979E-02      0.2195831867E-01
          0                 9           1             4   13     1      -0.2096208915E-04       4   13    1        -0.1301629607E-02      0.2982889891E-02

    ------------------------------------------------
       NWT REQUIRED            9 OUTER ITERATIONS 
       AND A TOTAL OF         17 INNER ITERATIONS.
    ------------------------------------------------

 NO OUTPUT CONTROL FOR STRESS PERIOD   22   TIME STEP    2
 
 SOLVING FOR HEAD 
                                                   Max.-Head-Change                         Max.-Flux-Residual
  Residual-Control   Outer-Iter.   Inner-Iter.     Column Row Layer    Maximum-Head-Change  Column Row Layer    Maximum-Flux-Residual          L2-NORM 
          0                 1           2             5    8     1       0.7463400413E-01       5    8    1         0.4038061752E+01      0.1012323430E+02
          0                 2           2             5    6     1      -0.2721738644E-01       5    8    1        -0.1500824296E+01      0.3648927364E+01
          0                 3           2             4    7     1      -0.6340369124E-01       4    7    1        -0.3402579981E+01      0.8328368959E+01
          0                 4           2             4    7     1       0.4318149895E-02       4    7    1         0.2382182630E+00      0.5831441651E+00
          0                 5           2             4    7     1      -0.1718640781E-03       4    7    1        -0.9745656787E-02      0.2386078952E-01
          0                 6           1             4    7     1       0.2120731787E-05       4    7    1         0.1236016492E-03      0.3026884351E-03

    ------------------------------------------------
       NWT REQUIRED            6 OUTER ITERATIONS 
       AND A TOTAL OF         11 INNER ITERATIONS.
    ------------------------------------------------

 NO OUTPUT CONTROL FOR STRESS PERIOD   22   TIME STEP    3
 
 SOLVING FOR HEAD 
                                                   Max.-Head-Change                         Max.-Flux-Residual
  Residual-Control   Outer-Iter.   Inner-Iter.     Column Row Layer    Maximum-Head-Change  Column Row Layer    Maximum-Flux-Residual          L2-NORM 
          0                 1           2             5    6     1       0.7423139019E-01       5    8    1         0.4014968277E+01      0.1008645554E+02
          0                 2           2             5    6     1      -0.7220620088E-02       5    8    1        -0.4014922518E+00      0.1009052969E+01
          0                 3           2             5    6     1       0.4916981458E-03       5    8    1         0.2810451316E-01      0.7063275717E-01
          0                 4           1             5    6     1      -0.1956508604E-04       5    8    1        -0.1149476003E-02      0.2888824728E-02

    ------------------------------------------------
       NWT REQUIRED            4 OUTER ITERATIONS 
       AND A TOTAL OF          7 INNER ITERATIONS.
    ------------------------------------------------

 NO OUTPUT CONTROL FOR STRESS PERIOD   22   TIME STEP    4
 
 SOLVING FOR HEAD 
                                                   Max.-Head-Change                         Max.-Flux-Residual
  Residual-Control   Outer-Iter.   Inner-Iter.     Column Row Layer    Maximum-Head-Change  Column Row Layer    Maximum-Flux-Residual          L2-NORM 
          0                 1           2             5    6     1       0.7151398844E-01       5    6    1         0.3857863712E+01      0.9799588362E+01
          0                 2           2             5    6     1      -0.1550390771E-01       5    6    1        -0.8556170968E+00      0.2095148188E+01
          0                 3           2             4    7     1       0.8876878191E-02       5    6    1         0.4925682842E+00      0.1204206208E+01
          0                 4           1             4   13     1      -0.3644514915E-04       4   13    1        -0.2263900375E-02      0.4869825703E-02

    ------------------------------------------------
       NWT REQUIRED            4 OUTER ITERATIONS 
       AND A TOTAL OF          7 INNER ITERATIONS.
    ------------------------------------------------

 NO OUTPUT CONTROL FOR STRESS PERIOD   22   TIME STEP    5
 
 SOLVING FOR HEAD 
                                                   Max.-Head-Change                         Max.-Flux-Residual
  Residual-Control   Outer-Iter.   Inner-Iter.     Column Row Layer    Maximum-Head-Change  Column Row Layer    Maximum-Flux-Residual          L2-NORM 
          0                 1           2             5    6     1       0.6895512683E-01       5    6    1         0.3717089634E+01      0.9528757182E+01
          0                 2           2             5    7     1      -0.3153371279E-01       5    6    1        -0.1718804104E+01      0.4206389490E+01
          0                 3           2             4    7     1       0.1072572160E-01       5    6    1         0.5936810251E+00      0.1452898847E+01
          0                 4           2             4    7     1      -0.4267871233E-03       5    6    1        -0.2428011937E-01      0.5944654749E-01
          0                 5           1             4    7     1       0.5262468973E-05       5    6    1         0.3076022817E-03      0.7647692463E-03

    ------------------------------------------------
       NWT REQUIRED            5 OUTER ITERATIONS 
       AND A TOTAL OF          9 INNER ITERATIONS.
    ------------------------------------------------

 NO OUTPUT CONTROL FOR STRESS PERIOD   22   TIME STEP    6
 
 SOLVING FOR HEAD 
                                                   Max.-Head-Change                         Max.-Flux-Residual
  Residual-Control   Outer-Iter.   Inner-Iter.     Column Row Layer    Maximum-Head-Change  Column Row Layer    Maximum-Flux-Residual          L2-NORM 
          0                 1           2             5    7     1       0.6764965231E-01       5    6    1         0.3608122272E+01      0.9317871757E+01
          0                 2           2             5    7     1      -0.2029725554E-01       5    6    1        -0.1104510614E+01      0.2717907421E+01
          0                 3           2             4    7     1      -0.2554618293E-02       4    7    1        -0.1370845693E+00      0.3362895382E+00
          0                 4           2             4    7     1       0.3430306442E-02       4    7    1         0.1892328633E+00      0.4633903418E+00
          0                 5           2             4    7     1      -0.1365275388E-03       4    7    1        -0.7741716168E-02      0.1896190665E-01
          0                 6           1             4    7     1       0.1684693757E-05       5    8    1         0.9820573587E-04      0.2405803102E-03

    ------------------------------------------------
       NWT REQUIRED            6 OUTER ITERATIONS 
       AND A TOTAL OF         11 INNER ITERATIONS.
    ------------------------------------------------

 NO OUTPUT CONTROL FOR STRESS PERIOD   22   TIME STEP    7
 
 SOLVING FOR HEAD 
                                                   Max.-Head-Change                         Max.-Flux-Residual
  Residual-Control   Outer-Iter.   Inner-Iter.     Column Row Layer    Maximum-Head-Change  Column Row Layer    Maximum-Flux-Residual          L2-NORM 
          0                 1           2             5    7     1       0.6653878670E-01       5    7    1         0.3527118592E+01      0.9112096568E+01
          0                 2           2             4    7     1      -0.2228344695E-01       5    7    1        -0.1208164231E+01      0.2972494218E+01
          0                 3           2             7   13     1      -0.3125714108E-03       7   13    1        -0.1741301797E-01      0.3867328885E-01
          0                 4           2             4    7     1       0.1223073738E-02       4    7    1         0.6746970100E-01      0.1652261897E+00
          0                 5           1             4    7     1      -0.4867915494E-04       5    8    1        -0.2760356095E-02      0.6761180884E-02

    ------------------------------------------------
       NWT REQUIRED            5 OUTER ITERATIONS 
       AND A TOTAL OF          9 INNER ITERATIONS.
    ------------------------------------------------

 NO OUTPUT CONTROL FOR STRESS PERIOD   22   TIME STEP    8
 
 SOLVING FOR HEAD 
                                                   Max.-Head-Change                         Max.-Flux-Residual
  Residual-Control   Outer-Iter.   Inner-Iter.     Column Row Layer    Maximum-Head-Change  Column Row Layer    Maximum-Flux-Residual          L2-NORM 
          0                 1           2             5    7     1       0.6547296600E-01       5    7    1         0.3470615072E+01      0.8920584903E+01
          0                 2           2             4    7     1      -0.2320102228E-01       5    7    1        -0.1253411783E+01      0.3079847906E+01
          0                 3           2             4    7     1       0.1260131794E-02       5    7    1         0.7009856972E-01      0.1733261844E+00
          0                 4           2             4    7     1       0.2563624066E-03       5    8    1         0.1414313347E-01      0.3466208238E-01
          0                 5           1             4    7     1      -0.1020339403E-04       5    8    1        -0.5789671063E-03      0.1418047402E-02

    ------------------------------------------------
       NWT REQUIRED            5 OUTER ITERATIONS 
       AND A TOTAL OF          9 INNER ITERATIONS.
    ------------------------------------------------

 NO OUTPUT CONTROL FOR STRESS PERIOD   22   TIME STEP    9
 
 SOLVING FOR HEAD 
                                                   Max.-Head-Change                         Max.-Flux-Residual
  Residual-Control   Outer-Iter.   Inner-Iter.     Column Row Layer    Maximum-Head-Change  Column Row Layer    Maximum-Flux-Residual          L2-NORM 
          0                 1           2             4    7     1       0.6454840715E-01       5    7    1         0.3415890112E+01      0.8740395914E+01
          0                 2           2             4    7     1      -0.2358645144E-01       5    7    1        -0.1270403469E+01      0.3118517935E+01
          0                 3           2             4    7     1      -0.1531870467E+00       5    8    1        -0.8221262185E+01      0.2013696251E+02
          0                 4           2             4    7     1       0.1043282693E-01       5    8    1         0.5756798540E+00      0.1409956713E+01
          0                 5           2             4    7     1      -0.4152310144E-03       5    8    1        -0.2355553079E-01      0.5769106955E-01
          0                 6           1             4    7     1       0.5123778443E-05       5    8    1         0.2987990847E-03      0.7318220912E-03

    ------------------------------------------------
       NWT REQUIRED            6 OUTER ITERATIONS 
       AND A TOTAL OF         11 INNER ITERATIONS.
    ------------------------------------------------

 NO OUTPUT CONTROL FOR STRESS PERIOD   22   TIME STEP   10
 
 SOLVING FOR HEAD 
                                                   Max.-Head-Change                         Max.-Flux-Residual
  Residual-Control   Outer-Iter.   Inner-Iter.     Column Row Layer    Maximum-Head-Change  Column Row Layer    Maximum-Flux-Residual          L2-NORM 
          0                 1           2             5    7     1       0.6574538019E-01       5    7    1         0.3483779794E+01      0.9003544899E+01
          0                 2           2             5    7     1      -0.6395215875E-02       5    7    1        -0.3483768740E+00      0.9008385332E+00
          0                 3           2             5    7     1       0.4354906592E-03       5    7    1         0.2438640228E-01      0.6305770805E-01
          0                 4           1             5    7     1      -0.1732858608E-04       5    7    1        -0.9974052045E-03      0.2579010503E-02

    ------------------------------------------------
       NWT REQUIRED            4 OUTER ITERATIONS 
       AND A TOTAL OF          7 INNER ITERATIONS.
    ------------------------------------------------

 NO OUTPUT CONTROL FOR STRESS PERIOD   22   TIME STEP   11
 
 SOLVING FOR HEAD 
                                                   Max.-Head-Change                         Max.-Flux-Residual
  Residual-Control   Outer-Iter.   Inner-Iter.     Column Row Layer    Maximum-Head-Change  Column Row Layer    Maximum-Flux-Residual          L2-NORM 
          0                 1           2             4    7     1       0.6458264482E-01       5    7    1         0.3416826749E+01      0.8772109320E+01
          0                 2           2             4    7     1      -0.6282132824E-02       5    7    1        -0.3416819354E+00      0.8771957566E+00
          0                 3           2             4    7     1       0.4277899330E-03       5    7    1         0.2391775291E-01      0.6140293349E-01
          0                 4           1             4    7     1      -0.1702216142E-04       5    7    1        -0.9782374200E-03      0.2511324596E-02

    ------------------------------------------------
       NWT REQUIRED            4 OUTER ITERATIONS 
       AND A TOTAL OF          7 INNER ITERATIONS.
    ------------------------------------------------

 NO OUTPUT CONTROL FOR STRESS PERIOD   22   TIME STEP   12
 
 SOLVING FOR HEAD 
                                                   Max.-Head-Change                         Max.-Flux-Residual
  Residual-Control   Outer-Iter.   Inner-Iter.     Column Row Layer    Maximum-Head-Change  Column Row Layer    Maximum-Flux-Residual          L2-NORM 
          0                 1           2             4    7     1       0.6413324203E-01       4    7    1         0.3355537631E+01      0.8551884795E+01
          0                 2           2             4    7     1      -0.6238423562E-02       4    7    1        -0.3355543595E+00      0.8551753854E+00
          0                 3           2             4    7     1       0.4248100162E-03       4    7    1         0.2348862080E-01      0.5986118798E-01
          0                 4           1             4    7     1      -0.1690025764E-04       4    7    1        -0.9604971024E-03      0.2447840625E-02

    ------------------------------------------------
       NWT REQUIRED            4 OUTER ITERATIONS 
       AND A TOTAL OF          7 INNER ITERATIONS.
    ------------------------------------------------

 NO OUTPUT CONTROL FOR STRESS PERIOD   22   TIME STEP   13
 
 SOLVING FOR HEAD 
                                                   Max.-Head-Change                         Max.-Flux-Residual
  Residual-Control   Outer-Iter.   Inner-Iter.     Column Row Layer    Maximum-Head-Change  Column Row Layer    Maximum-Flux-Residual          L2-NORM 
          0                 1           2             4    7     1       0.6365394119E-01       4    7    1         0.3332186349E+01      0.8342077247E+01
          0                 2           2             4    7     1      -0.1068080112E-01       4    7    1        -0.5741214934E+00      0.1405670329E+01
          0                 3           2             4    7     1       0.4453216865E-02       4    7    1         0.2457284922E+00      0.6001130045E+00
          0                 4           2             4    7     1      -0.2626722231E-02       4    7    1        -0.1489455635E+00      0.3671303402E+00
          0                 5           2             4    7     1       0.1347164569E-02       4    7    1         0.7851085472E-01      0.1934144974E+00
          0                 6           2             4    7     1       0.1506990939E-02       5    8    1         0.8782550149E-01      0.2151302129E+00
          0                 7           2             4    7     1      -0.2044786315E-02       4    7    1        -0.1224672311E+00      0.3017124688E+00
          0                 8           2             4    7     1       0.4173049137E-03       4    7    1         0.2568344627E-01      0.6792818171E-01
          0                 9           2             4    7     1       0.1482271848E-02       5    8    1         0.9122756585E-01      0.2234695288E+00
          0                10           2             4    7     1       0.1446813056E-03       5    8    1         0.8905501624E-02      0.2198541502E-01
          0                11           1             4    7     1      -0.3903378250E-04       4    7    1        -0.2468436779E-02      0.6956605517E-02

    ------------------------------------------------
       NWT REQUIRED           11 OUTER ITERATIONS 
       AND A TOTAL OF         21 INNER ITERATIONS.
    ------------------------------------------------

 NO OUTPUT CONTROL FOR STRESS PERIOD   22   TIME STEP   14
 
 SOLVING FOR HEAD 
                                                   Max.-Head-Change                         Max.-Flux-Residual
  Residual-Control   Outer-Iter.   Inner-Iter.     Column Row Layer    Maximum-Head-Change  Column Row Layer    Maximum-Flux-Residual          L2-NORM 
          0                 1           2             4    7     1       0.6314901209E-01       4    7    1         0.3307353743E+01      0.8142953616E+01
          0                 2           2             4    7     1      -0.2535883520E-01       4    7    1        -0.1361971214E+01      0.3313201487E+01
          0                 3           2             4    7     1      -0.1272895303E+00       5    8    1        -0.6833071654E+01      0.1673506554E+02
          0                 4           2             4    7     1       0.8669091522E-02       5    8    1         0.4784747822E+00      0.1171763734E+01
          0                 5           2             4    7     1      -0.3450334948E-03       5    8    1        -0.1957810140E-01      0.4794491826E-01
          0                 6           1             4    7     1       0.4257570559E-05       5    8    1         0.2483457456E-03      0.6081896127E-03

    ------------------------------------------------
       NWT REQUIRED            6 OUTER ITERATIONS 
       AND A TOTAL OF         11 INNER ITERATIONS.
    ------------------------------------------------

 NO OUTPUT CONTROL FOR STRESS PERIOD   22   TIME STEP   15
 
 SOLVING FOR HEAD 
                                                   Max.-Head-Change                         Max.-Flux-Residual
  Residual-Control   Outer-Iter.   Inner-Iter.     Column Row Layer    Maximum-Head-Change  Column Row Layer    Maximum-Flux-Residual          L2-NORM 
          0                 1           2             4    7     1       0.6339888778E-01       4    7    1         0.3318260739E+01      0.8354209135E+01
          0                 2           2             4    7     1      -0.6166995034E-02       4    7    1        -0.3318269412E+00      0.8359585115E+00
          0                 3           2             4    7     1       0.4199493836E-03       4    7    1         0.2322788781E-01      0.5851637783E-01
          0                 4           1             4    7     1      -0.1671017944E-04       4    7    1        -0.9500219803E-03      0.2393271143E-02

    ------------------------------------------------
       NWT REQUIRED            4 OUTER ITERATIONS 
       AND A TOTAL OF          7 INNER ITERATIONS.
    ------------------------------------------------

 NO OUTPUT CONTROL FOR STRESS PERIOD   22   TIME STEP   16
 
 SOLVING FOR HEAD 
                                                   Max.-Head-Change                         Max.-Flux-Residual
  Residual-Control   Outer-Iter.   Inner-Iter.     Column Row Layer    Maximum-Head-Change  Column Row Layer    Maximum-Flux-Residual          L2-NORM 
          0                 1           2             4    7     1       0.6290525570E-01       4    7    1         0.3294031206E+01      0.8153008049E+01
          0                 2           2             4    7     1      -0.6118982528E-02       4    7    1        -0.3294042828E+00      0.8152906192E+00
          0                 3           2             4    7     1       0.4166798666E-03       4    7    1         0.2305829888E-01      0.5706980233E-01
          0                 4           1             4    7     1      -0.1658008191E-04       4    7    1        -0.9430857854E-03      0.2334113922E-02

    ------------------------------------------------
       NWT REQUIRED            4 OUTER ITERATIONS 
       AND A TOTAL OF          7 INNER ITERATIONS.
    ------------------------------------------------

 NO OUTPUT CONTROL FOR STRESS PERIOD   22   TIME STEP   17
 
 SOLVING FOR HEAD 
                                                   Max.-Head-Change                         Max.-Flux-Residual
  Residual-Control   Outer-Iter.   Inner-Iter.     Column Row Layer    Maximum-Head-Change  Column Row Layer    Maximum-Flux-Residual          L2-NORM 
          0                 1           2             4    7     1       0.6238696199E-01       4    7    1         0.3268386679E+01      0.7961054192E+01
          0                 2           2             4    7     1      -0.6068570610E-02       4    7    1        -0.3268400913E+00      0.7960967602E+00
          0                 3           2             4    7     1       0.4132469634E-03       4    7    1         0.2287880291E-01      0.5572632595E-01
          0                 4           1             4    7     1      -0.1644348370E-04       4    7    1        -0.9357444014E-03      0.2279178176E-02

    ------------------------------------------------
       NWT REQUIRED            4 OUTER ITERATIONS 
       AND A TOTAL OF          7 INNER ITERATIONS.
    ------------------------------------------------

 NO OUTPUT CONTROL FOR STRESS PERIOD   22   TIME STEP   18
 
 SOLVING FOR HEAD 
                                                   Max.-Head-Change                         Max.-Flux-Residual
  Residual-Control   Outer-Iter.   Inner-Iter.     Column Row Layer    Maximum-Head-Change  Column Row Layer    Maximum-Flux-Residual          L2-NORM 
          0                 1           2             4    7     1       0.6184634519E-01       4    7    1         0.3241456217E+01      0.7777691144E+01
          0                 2           2             4    7     1      -0.1060353874E-01       4    7    1        -0.5703385430E+00      0.1364089239E+01
          0                 3           2             4    7     1       0.4577340560E-02       4    7    1         0.2526015005E+00      0.6149565171E+00
          0                 4           2             4    7     1      -0.2684044619E-02       4    7    1        -0.1521971353E+00      0.3749944956E+00
          0                 5           2             4    7     1       0.7251306467E-03       4    7    1         0.4225961264E-01      0.1076589092E+00
          0                 6           2             4    7     1       0.2048125998E-02       5    8    1         0.1193614731E+00      0.2923843810E+00
          0                 7           2             4    7     1       0.1172494367E-03       5    8    1         0.6834514596E-02      0.1694005817E-01
          0                 8           1             4    7     1      -0.4368903316E-04       4    7    1        -0.2616615734E-02      0.7180710838E-02

    ------------------------------------------------
       NWT REQUIRED            8 OUTER ITERATIONS 
       AND A TOTAL OF         15 INNER ITERATIONS.
    ------------------------------------------------

 NO OUTPUT CONTROL FOR STRESS PERIOD   22   TIME STEP   19
 
 SOLVING FOR HEAD 
                                                   Max.-Head-Change                         Max.-Flux-Residual
  Residual-Control   Outer-Iter.   Inner-Iter.     Column Row Layer    Maximum-Head-Change  Column Row Layer    Maximum-Flux-Residual          L2-NORM 
          0                 1           2             4    7     1       0.6128722183E-01       4    7    1         0.3213439789E+01      0.7603187460E+01
          0                 2           2             4    7     1      -0.2903748462E-01       4    7    1        -0.1559715288E+01      0.3768261235E+01
          0                 3           2             4    7     1      -0.1438879850E-01       5    8    1        -0.7754299691E+00      0.1896070306E+01
          0                 4           2             4    7     1       0.9799626319E-03       5    8    1         0.5430087212E-01      0.1327567704E+00
          0                 5           1             4    7     1      -0.3900288259E-04       5    8    1        -0.2221953801E-02      0.5432069397E-02

    ------------------------------------------------
       NWT REQUIRED            5 OUTER ITERATIONS 
       AND A TOTAL OF          9 INNER ITERATIONS.
    ------------------------------------------------

 NO OUTPUT CONTROL FOR STRESS PERIOD   22   TIME STEP   20
 
 SOLVING FOR HEAD 
                                                   Max.-Head-Change                         Max.-Flux-Residual
  Residual-Control   Outer-Iter.   Inner-Iter.     Column Row Layer    Maximum-Head-Change  Column Row Layer    Maximum-Flux-Residual          L2-NORM 
          0                 1           2             4    7     1       0.6091686436E-01       4    7    1         0.3194232682E+01      0.7538338507E+01
          0                 2           2             4    7     1      -0.5925577194E-02       4    7    1        -0.3194251567E+00      0.7544420868E+00
          0                 3           2             5    8     1      -0.1331468368E-02       5    8    1        -0.7327414412E-01      0.1780986925E+00
          0                 4           2             4    7     1       0.1187560352E-02       5    8    1         0.6574514573E-01      0.1609121873E+00
          0                 5           2             4    7     1       0.3596380791E-03       4    7    1         0.1983935345E-01      0.4861447486E-01
          0                 6           2             4    7     1      -0.7676294288E-03       4    7    1        -0.4352614989E-01      0.1073329726E+00
          0                 7           2             4    7     1       0.6319327808E-03       5    8    1         0.3682813094E-01      0.9025711133E-01
          0                 8           2             4    7     1       0.1420210355E-03       4    7    1         0.8276538839E-02      0.2034330564E-01
          0                 9           1             4    7     1      -0.2919194264E-04       5    8    1        -0.1748467070E-02      0.4825744050E-02

    ------------------------------------------------
       NWT REQUIRED            9 OUTER ITERATIONS 
       AND A TOTAL OF         17 INNER ITERATIONS.
    ------------------------------------------------

 NO OUTPUT CONTROL FOR STRESS PERIOD   22   TIME STEP   21
 
 SOLVING FOR HEAD 
                                                   Max.-Head-Change                         Max.-Flux-Residual
  Residual-Control   Outer-Iter.   Inner-Iter.     Column Row Layer    Maximum-Head-Change  Column Row Layer    Maximum-Flux-Residual          L2-NORM 
          0                 1           2             4    7     1       0.6033933928E-01       4    7    1         0.3165117842E+01      0.7373314373E+01
          0                 2           2             4    7     1      -0.3665451607E-01       4    7    1        -0.1968601638E+01      0.4757231484E+01
          0                 3           2             4    7     1       0.1403726503E-01       4    7    1         0.7744787744E+00      0.1891992393E+01
          0                 4           2             4    7     1      -0.5585570783E-03       4    7    1        -0.3167627013E-01      0.7739093467E-01
          0                 5           1             4    7     1       0.6887249208E-05       4    7    1         0.4014339311E-03      0.9892932024E-03

    ------------------------------------------------
       NWT REQUIRED            5 OUTER ITERATIONS 
       AND A TOTAL OF          9 INNER ITERATIONS.
    ------------------------------------------------

 NO OUTPUT CONTROL FOR STRESS PERIOD   22   TIME STEP   22
 
 SOLVING FOR HEAD 
                                                   Max.-Head-Change                         Max.-Flux-Residual
  Residual-Control   Outer-Iter.   Inner-Iter.     Column Row Layer    Maximum-Head-Change  Column Row Layer    Maximum-Flux-Residual          L2-NORM 
          0                 1           2             4    7     1       0.5984541031E-01       4    7    1         0.3139820848E+01      0.7263407892E+01
          0                 2           2             4    7     1      -0.2214806782E-01       4    7    1        -0.1190160093E+01      0.2853185268E+01
          0                 3           2             4    7     1       0.5971572096E-03       4    7    1         0.3305304502E-01      0.7890664597E-01
          0                 4           2             4    7     1       0.8304793930E-03       5    8    1         0.4597014860E-01      0.1124443493E+00
          0                 5           1             4    7     1      -0.3305363453E-04       5    8    1        -0.1881327971E-02      0.4601253248E-02

    ------------------------------------------------
       NWT REQUIRED            5 OUTER ITERATIONS 
       AND A TOTAL OF          9 INNER ITERATIONS.
    ------------------------------------------------

 NO OUTPUT CONTROL FOR STRESS PERIOD   22   TIME STEP   23
 
 SOLVING FOR HEAD 
                                                   Max.-Head-Change                         Max.-Flux-Residual
  Residual-Control   Outer-Iter.   Inner-Iter.     Column Row Layer    Maximum-Head-Change  Column Row Layer    Maximum-Flux-Residual          L2-NORM 
          0                 1           2             4    7     1       0.5933233224E-01       4    7    1         0.3113525489E+01      0.7150971525E+01
          0                 2           2             4    7     1      -0.2283114531E-01       4    7    1        -0.1226866959E+01      0.2939074864E+01
          0                 3           2             4    7     1       0.1408427952E-02       4    7    1         0.7781061805E-01      0.1866453913E+00
          0                 4           1             5    8     1       0.8499965552E-04       5    8    1         0.4810484067E-02      0.1169654963E-01

    ------------------------------------------------
       NWT REQUIRED            4 OUTER ITERATIONS 
       AND A TOTAL OF          7 INNER ITERATIONS.
    ------------------------------------------------

 NO OUTPUT CONTROL FOR STRESS PERIOD   22   TIME STEP   24
 
 SOLVING FOR HEAD 
                                                   Max.-Head-Change                         Max.-Flux-Residual
  Residual-Control   Outer-Iter.   Inner-Iter.     Column Row Layer    Maximum-Head-Change  Column Row Layer    Maximum-Flux-Residual          L2-NORM 
          0                 1           2             4    7     1       0.5881690526E-01       4    7    1         0.3087030724E+01      0.7044292993E+01
          0                 2           2             4    7     1      -0.2310417382E-01       4    7    1        -0.1241560829E+01      0.2971378284E+01
          0                 3           2             4    7     1      -0.1532142844E+00       5    8    1        -0.8226358597E+01      0.2014603008E+02
          0                 4           2             4    7     1       0.1043468254E-01       5    8    1         0.5760340256E+00      0.1410589794E+01
          0                 5           2             4    7     1      -0.4153048659E-03       5    8    1        -0.2356991543E-01      0.5771676255E-01
          0                 6           1             4    7     1       0.5124689804E-05       5    8    1         0.2989802438E-03      0.7321431776E-03

    ------------------------------------------------
       NWT REQUIRED            6 OUTER ITERATIONS 
       AND A TOTAL OF         11 INNER ITERATIONS.
    ------------------------------------------------

 NO OUTPUT CONTROL FOR STRESS PERIOD   22   TIME STEP   25
 
 SOLVING FOR HEAD 
                                                   Max.-Head-Change                         Max.-Flux-Residual
  Residual-Control   Outer-Iter.   Inner-Iter.     Column Row Layer    Maximum-Head-Change  Column Row Layer    Maximum-Flux-Residual          L2-NORM 
          0                 1           2             4    7     1       0.5911438018E-01       4    7    1         0.3099209892E+01      0.7338532970E+01
          0                 2           2             4    7     1      -0.5751795810E-02       4    7    1        -0.3100549840E+00      0.7344949788E+00
          0                 3           2             4    7     1       0.3916757095E-03       4    7    1         0.2170384074E-01      0.5141387048E-01
          0                 4           1             4    7     1      -0.1558514424E-04       4    7    1        -0.8876884126E-03      0.2102792259E-02

    ------------------------------------------------
       NWT REQUIRED            4 OUTER ITERATIONS 
       AND A TOTAL OF          7 INNER ITERATIONS.
    ------------------------------------------------

 NO OUTPUT CONTROL FOR STRESS PERIOD   22   TIME STEP   26
 
 SOLVING FOR HEAD 
                                                   Max.-Head-Change                         Max.-Flux-Residual
  Residual-Control   Outer-Iter.   Inner-Iter.     Column Row Layer    Maximum-Head-Change  Column Row Layer    Maximum-Flux-Residual          L2-NORM 
          0                 1           2             4    7     1       0.5855310976E-01       4    7    1         0.3071346923E+01      0.7178660528E+01
          0                 2           2             4    7     1      -0.5695650227E-02       4    7    1        -0.3071367087E+00      0.7178585704E+00
          0                 3           2             4    7     1       0.3878523811E-03       4    7    1         0.2149955993E-01      0.5024957049E-01
          0                 4           1             4    7     1      -0.1543301037E-04       4    7    1        -0.8793333204E-03      0.2055182784E-02

    ------------------------------------------------
       NWT REQUIRED            4 OUTER ITERATIONS 
       AND A TOTAL OF          7 INNER ITERATIONS.
    ------------------------------------------------

 NO OUTPUT CONTROL FOR STRESS PERIOD   22   TIME STEP   27
 
 SOLVING FOR HEAD 
                                                   Max.-Head-Change                         Max.-Flux-Residual
  Residual-Control   Outer-Iter.   Inner-Iter.     Column Row Layer    Maximum-Head-Change  Column Row Layer    Maximum-Flux-Residual          L2-NORM 
          0                 1           2             4    7     1       0.5797860016E-01       4    7    1         0.3042263540E+01      0.7025585805E+01
          0                 2           2             4    7     1      -0.5639768217E-02       4    7    1        -0.3042285106E+00      0.7025523570E+00
          0                 3           2             4    7     1       0.3840470024E-03       4    7    1         0.2129598465E-01      0.4917818508E-01
          0                 4           1             4    7     1      -0.1528159063E-04       4    7    1        -0.8710070683E-03      0.2011359960E-02

    ------------------------------------------------
       NWT REQUIRED            4 OUTER ITERATIONS 
       AND A TOTAL OF          7 INNER ITERATIONS.
    ------------------------------------------------

 NO OUTPUT CONTROL FOR STRESS PERIOD   22   TIME STEP   28
 
 SOLVING FOR HEAD 
                                                   Max.-Head-Change                         Max.-Flux-Residual
  Residual-Control   Outer-Iter.   Inner-Iter.     Column Row Layer    Maximum-Head-Change  Column Row Layer    Maximum-Flux-Residual          L2-NORM 
          0                 1           2             4    7     1       0.5739105897E-01       4    7    1         0.3012410995E+01      0.6878828414E+01
          0                 2           2             4    7     1      -0.6177150704E-02       4    7    1        -0.3331497484E+00      0.7627340232E+00
          0                 3           2             5    8     1      -0.2571458101E-03       5    8    1        -0.1415984020E-01      0.3711959611E-01
          0                 4           2             4    7     1       0.8730929773E-03       5    8    1         0.4844106211E-01      0.1184203367E+00
          0                 5           1             4   13     1      -0.3528813854E-04       4   13    1        -0.2075045356E-02      0.3671199821E-02

    ------------------------------------------------
       NWT REQUIRED            5 OUTER ITERATIONS 
       AND A TOTAL OF          9 INNER ITERATIONS.
    ------------------------------------------------

 NO OUTPUT CONTROL FOR STRESS PERIOD   22   TIME STEP   29
 
 SOLVING FOR HEAD 
                                                   Max.-Head-Change                         Max.-Flux-Residual
  Residual-Control   Outer-Iter.   Inner-Iter.     Column Row Layer    Maximum-Head-Change  Column Row Layer    Maximum-Flux-Residual          L2-NORM 
          0                 1           2             4    7     1       0.5679389514E-01       4    7    1         0.2981965649E+01      0.6739052265E+01
          0                 2           2             4    7     1      -0.3793443691E-01       4    7    1        -0.2037520883E+01      0.4910803881E+01
          0                 3           2             4    7     1       0.1838193489E-01       4    7    1         0.1014190299E+01      0.2478163870E+01
          0                 4           2             4    7     1      -0.7314364002E-03       4    7    1        -0.4148011601E-01      0.1013574523E+00
          0                 5           1             4    7     1       0.9018924915E-05       4    7    1         0.5256501545E-03      0.1291559863E-02

    ------------------------------------------------
       NWT REQUIRED            5 OUTER ITERATIONS 
       AND A TOTAL OF          9 INNER ITERATIONS.
    ------------------------------------------------

 NO OUTPUT CONTROL FOR STRESS PERIOD   22   TIME STEP   30



 STREAM LISTING     PERIOD     22   STEP       30

 LAYER ROW COL. STREAM  RCH.  FLOW INTO     FLOW TO   FLOW OUT OF   OVRLND.     DIRECT     STREAM       STREAM     STREAM     STREAM   STREAMBED  STREAMBED
                SEG.NO.  NO.  STRM. RCH.    AQUIFER    STRM. RCH.    RUNOFF     PRECIP       ET          HEAD       DEPTH      WIDTH   CONDCTNC.   GRADIENT

   1    1    1     1     1    9.1618E+00  1.4063E-01   9.0211E+00  0.000E+00  0.000E+00  0.000E+00  1.09392E+03  8.721E-01  8.071E+00  3.632E-02  1.291E+00
   1    2    2     1     2    9.0211E+00  2.1609E-01   8.8050E+00  0.000E+00  0.000E+00  0.000E+00  1.08893E+03  8.664E-01  7.984E+00  5.589E-02  1.289E+00
   1    3    3     1     3    8.8050E+00  1.8264E-01   8.6224E+00  0.000E+00  0.000E+00  0.000E+00  1.08328E+03  8.600E-01  7.886E+00  4.732E-02  1.287E+00
   1    3    4     1     4    8.6224E+00  1.6685E-01   8.4556E+00  0.000E+00  0.000E+00  0.000E+00  1.07826E+03  8.543E-01  7.800E+00  4.329E-02  1.285E+00
   1    4    5     2     1    6.4556E+00  2.7527E-01   6.1803E+00  0.000E+00  0.000E+00  0.000E+00  1.07246E+03  5.290E-01  1.200E+01  7.800E-02  1.176E+00
   1    5    6     2     2    6.1803E+00  2.1100E-01   5.9693E+00  0.000E+00  0.000E+00  0.000E+00  1.06703E+03  5.167E-01  1.200E+01  6.000E-02  1.172E+00
   1    6    6     2     3    5.9693E+00  2.1035E-01   5.7589E+00  0.000E+00  0.000E+00  0.000E+00  1.06230E+03  5.059E-01  1.200E+01  6.000E-02  1.169E+00
   1    7    6     2     4    5.7589E+00  2.0970E-01   5.5492E+00  0.000E+00  0.000E+00  0.000E+00  1.05757E+03  4.950E-01  1.200E+01  6.000E-02  1.165E+00
   1    8    6     2     5    5.5492E+00  2.0903E-01   5.3402E+00  0.000E+00  0.000E+00  0.000E+00  1.05284E+03  4.839E-01  1.200E+01  6.000E-02  1.161E+00
   1    3    5     3     1    2.0000E+00  2.8252E-01   1.7175E+00  0.000E+00  0.000E+00  0.000E+00  1.07555E+03  1.909E+00  9.636E+00  7.227E-02  1.955E+00
   1    3    6     3     2    1.7175E+00  2.4905E-01   1.4684E+00  0.000E+00  0.000E+00  0.000E+00  1.07264E+03  1.727E+00  8.909E+00  6.682E-02  1.864E+00
   1    3    7     3     3    1.4684E+00  1.9718E-01   1.2712E+00  0.000E+00  0.000E+00  0.000E+00  1.06987E+03  1.555E+00  8.218E+00  5.547E-02  1.777E+00
   1    4    8     3     4    1.2712E+00  2.2567E-01   1.0456E+00  0.000E+00  0.000E+00  0.000E+00  1.06682E+03  1.364E+00  7.455E+00  6.709E-02  1.682E+00
   1    5    8     3     5    1.0456E+00  1.5790E-01   8.8768E-01  0.000E+00  0.000E+00  0.000E+00  1.06362E+03  1.164E+00  6.655E+00  4.991E-02  1.582E+00
   1    6    8     3     6    8.8768E-01  5.5980E-02   8.3170E-01  0.000E+00  0.000E+00  0.000E+00  1.06158E+03  1.036E+00  6.145E+00  1.844E-02  1.518E+00
   1    5   10     4     1    1.0000E+01  9.0919E-02   9.9091E+00  0.000E+00  0.000E+00  0.000E+00  1.07836E+03  6.368E-01  1.000E+01  2.500E-02  1.212E+00
   1    5    9     4     2    9.9091E+00  1.8158E-01   9.7275E+00  0.000E+00  0.000E+00  0.000E+00  1.07154E+03  6.315E-01  1.000E+01  5.000E-02  1.211E+00
   1    6    8     4     3    9.7275E+00  1.2689E-01   9.6006E+00  0.000E+00  0.000E+00  0.000E+00  1.06381E+03  6.256E-01  1.000E+01  3.500E-02  1.209E+00
   1    6    8     5     1    1.0432E+01  2.2686E-01   1.0205E+01  0.000E+00  0.000E+00  0.000E+00  1.05868E+03  6.790E-01  1.542E+01  6.166E-02  1.226E+00
   1    7    7     5     2    1.0205E+01  2.7894E-01   9.9265E+00  0.000E+00  0.000E+00  0.000E+00  1.05417E+03  6.732E-01  1.519E+01  7.594E-02  1.224E+00
   1    8    7     5     3    9.9265E+00  1.9221E-01   9.7343E+00  0.000E+00  0.000E+00  0.000E+00  1.04992E+03  6.676E-01  1.497E+01  5.241E-02  1.223E+00
   1    8    6     5     4    9.7343E+00  1.3577E-01   9.5985E+00  0.000E+00  0.000E+00  0.000E+00  1.04691E+03  6.637E-01  1.482E+01  3.706E-02  1.221E+00
   1    9    6     6     1    9.5985E+00  2.2097E-01   9.3776E+00  0.000E+00  0.000E+00  0.000E+00  1.04341E+03  6.828E-01  1.200E+01  6.000E-02  1.228E+00
   1   10    7     6     2    9.3776E+00  2.2039E-01   9.1572E+00  0.000E+00  0.000E+00  0.000E+00  1.03885E+03  6.732E-01  1.200E+01  6.000E-02  1.224E+00
   1   11    7     6     3    9.1572E+00  2.1981E-01   8.9374E+00  0.000E+00  0.000E+00  0.000E+00  1.03430E+03  6.636E-01  1.200E+01  6.000E-02  1.221E+00
   1   12    7     6     4    8.9374E+00  2.1923E-01   8.7181E+00  0.000E+00  0.000E+00  0.000E+00  1.02974E+03  6.539E-01  1.200E+01  6.000E-02  1.218E+00
   1   13    7     6     5    8.7181E+00 -2.0169E-02   8.7383E+00  0.000E+00  0.000E+00  0.000E+00  1.02656E+03  6.494E-01  1.200E+01  2.400E-01 -2.801E-02
   1   14    9     7     1    1.5000E+02  1.3772E+00   1.4862E+02  0.000E+00  0.000E+00  0.000E+00  1.03987E+03  2.288E+00  5.529E+01  5.593E-01  8.208E-01
   1   13    8     7     2    1.4862E+02  1.9695E+00   1.4665E+02  0.000E+00  0.000E+00  0.000E+00  1.03478E+03  2.279E+00  5.525E+01  6.147E-01  1.068E+00
   1   13    7     7     3    1.4665E+02  1.7006E+00   1.4495E+02  0.000E+00  0.000E+00  0.000E+00  1.02969E+03  2.269E+00  5.521E+01  5.584E-01  1.015E+00
   1   13    6     8     1    1.5369E+02  1.0570E+00   1.5263E+02  0.000E+00  0.000E+00  0.000E+00  1.02471E+03  2.839E+00  4.116E+01  4.195E-01  8.399E-01
   1   13    5     8     2    1.5263E+02  3.1684E-01   1.5232E+02  0.000E+00  0.000E+00  0.000E+00  1.01846E+03  2.834E+00  4.110E+01  4.188E-01  2.522E-01
   1   13    4     8     3    1.5232E+02 -1.9669E+00   1.5428E+02  0.000E+00  0.000E+00  0.000E+00  1.01221E+03  2.840E+00  4.118E+01  4.196E+00 -1.562E-01
   1   13    3     8     4    1.5428E+02 -3.4320E+00   1.5772E+02  0.000E+00  0.000E+00  0.000E+00  1.00598E+03  2.859E+00  4.145E+01  4.224E+00 -2.708E-01
   1   13    2     8     5    1.5772E+02 -2.5647E+00   1.6028E+02  0.000E+00  0.000E+00  0.000E+00  9.99754E+02  2.879E+00  4.175E+01  4.254E+00 -2.010E-01
   1   13    1     8     6    1.6028E+02 -1.9865E+00   1.6227E+02  0.000E+00  0.000E+00  0.000E+00  9.94769E+02  2.894E+00  4.197E+01  2.566E+00 -2.580E-01
   1    8    6     9     1    5.3402E+00  0.0000E+00   5.3402E+00  0.000E+00  0.000E+00  0.000E+00  1.08031E+03  1.555E+00  4.000E+00  0.000E+00  1.518E+00
   1    8    5     9     2    5.3402E+00  0.0000E+00   5.3402E+00  0.000E+00  0.000E+00  0.000E+00  1.07981E+03  1.555E+00  4.000E+00  0.000E+00  1.518E+00





UNSATURATED ZONE PACKAGE VOLUMETRIC BUDGET FOR  TIME STEP    30 STRESS PERIOD   22
  ------------------------------------------------------------------------------



     CUMULATIVE VOLUMES      L**3       RATES FOR THIS TIME STEP      L**3/T
     ------------------                 ------------------------

           IN:                                      IN:
           ---                                      ---
        INFILTRATION =  1108349389.6353          INFILTRATION =          11.3944

          OUT:                                     OUT:
          ----                                     ----
              UZF ET =   856119274.6658                UZF ET =          12.0675
        UZF RECHARGE =       73224.0000          UZF RECHARGE =       0.0000E+00

            IN - OUT =   252156890.9695              IN - OUT =          -0.6731

          STORAGE:                                 STORAGE:
          --------                                 --------
      STORAGE CHANGE =   252161129.4534        STORAGE CHANGE =          -0.6731

 PERCENT DISCREPANCY IS DIFFERENCE BETWEEN IN-OUT MINUS CHANGE IN STORAGE
 DIVIDED BY THE AVERAGE OF IN AND OUT TIMES 100

 PERCENT DISCREPANCY =          -0.00     PERCENT DISCREPANCY =           0.00






1
  VOLUMETRIC BUDGET FOR AGRICULTURAL FIELDS AT  END OF TIME STEP   30, STRESS PERIOD  22
  ------------------------------------------------------------------------------

     CUMULATIVE VOLUMES      L**3       RATES FOR THIS TIME STEP      L**3/T
     ------------------                 ------------------------

           IN:                                      IN:
           ---                                      ---
               AG WELLS  =   697628416.0000                 AG WELLS  =           5.2065
      DIVERSION SEGMENTS =   363935712.0000        DIVERSION SEGMENTS =           5.3402
       IRRIGATION PONDS  =           0.0000         IRRIGATION PONDS  =           0.0000
           GW IRRIGATION =           0.0000             GW IRRIGATION =           0.0000
           SW IRRIGATION =           0.0000             SW IRRIGATION =           0.0000
        SYSTEM LOSSES GW =           0.0000          SYSTEM LOSSES GW =           0.0000
        SYSTEM LOSSES SW =           0.0000          SYSTEM LOSSES SW =           0.0000

                TOTAL IN =  1061564160.0000                  TOTAL IN =          10.5468

          OUT:                                     OUT:
          ----                                     ----
               AG WELLS  =           0.0000                 AG WELLS  =           0.0000
      DIVERSION SEGMENTS =           0.0000        DIVERSION SEGMENTS =           0.0000
       IRRIGATION PONDS  =           0.0000         IRRIGATION PONDS  =           0.0000
           GW IRRIGATION =   697628416.0000             GW IRRIGATION =           5.2065
           SW IRRIGATION =   363942752.0000             SW IRRIGATION =           5.3403
        SYSTEM LOSSES GW =           0.0000          SYSTEM LOSSES GW =           0.0000
        SYSTEM LOSSES SW =           0.0000          SYSTEM LOSSES SW =           0.0000

               TOTAL OUT =  1061571200.0000                 TOTAL OUT =          10.5469

                IN - OUT =       -7040.0000                  IN - OUT =      -1.0586E-04

     PERCENT DISCREPANCY =          -0.00         PERCENT DISCREPANCY =          -0.00



1
  VOLUMETRIC BUDGET FOR ENTIRE MODEL AT END OF TIME STEP   30, STRESS PERIOD  22
  ------------------------------------------------------------------------------

     CUMULATIVE VOLUMES      L**3       RATES FOR THIS TIME STEP      L**3/T
     ------------------                 ------------------------

           IN:                                      IN:
           ---                                      ---
             STORAGE     =  1011633280.0000               STORAGE     =          14.0171
       CONSTANT HEAD     =           0.0000         CONSTANT HEAD     =           0.0000
     HEAD DEP BOUNDS     =    15935350.0000       HEAD DEP BOUNDS     =           0.2886
      STREAM LEAKAGE     =   653679616.0000        STREAM LEAKAGE     =          11.5246
        UZF RECHARGE     =       73223.9531          UZF RECHARGE     =           0.0000
               GW ET     =           0.0000                 GW ET     =           0.0000
     SURFACE LEAKAGE     =           0.0000       SURFACE LEAKAGE     =           0.0000
           AG WELLS      =           0.0000             AG WELLS      =           0.0000

                TOTAL IN =  1681321472.0000                  TOTAL IN =          25.8302

          OUT:                                     OUT:
          ----                                     ----
             STORAGE     =   407203168.0000               STORAGE     =          10.3666
       CONSTANT HEAD     =           0.0000         CONSTANT HEAD     =           0.0000
     HEAD DEP BOUNDS     =    15928562.0000       HEAD DEP BOUNDS     =           0.2867
      STREAM LEAKAGE     =   560566592.0000        STREAM LEAKAGE     =           9.9703
        UZF RECHARGE     =           0.0000          UZF RECHARGE     =           0.0000
               GW ET     =           0.0000                 GW ET     =           0.0000
     SURFACE LEAKAGE     =           0.0000       SURFACE LEAKAGE     =           0.0000
           AG WELLS      =   697628416.0000             AG WELLS      =           5.2065

               TOTAL OUT =  1681326720.0000                 TOTAL OUT =          25.8302

                IN - OUT =       -5248.0000                  IN - OUT =       5.1498E-05

     PERCENT DISCREPANCY =          -0.00         PERCENT DISCREPANCY =           0.00






         TIME SUMMARY AT END OF TIME STEP   30 IN STRESS PERIOD   22
                    SECONDS     MINUTES      HOURS       DAYS        YEARS
                    -----------------------------------------------------------
   TIME STEP LENGTH  87667.      1461.1      24.352      1.0147     2.77799E-03
 STRESS PERIOD TIME 2.63000E+06  43833.      730.56      30.440     8.33397E-02
         TOTAL TIME 5.53166E+07 9.21944E+05  15366.      640.24      1.7529    
1
1
                            STRESS PERIOD NO.   23, LENGTH =   2630000.    
                            -----------------------------------------------

                              NUMBER OF TIME STEPS =    30

                               MULTIPLIER FOR DELT =     1.000

                            INITIAL TIME STEP SIZE =   87666.66    

 REUSING NON-PARAMETER GHB CELLS FROM LAST STRESS PERIOD

      2 GHB CELLS

 REUSING STREAM SEGMENT DATA FROM LAST STRESS PERIOD



            AREAL INFILTRATION RATE
 READING ON UNIT   19 WITH FORMAT: (FREE)              

            1           2           3           4           5           6           7           8           9          10
 ........................................................................................................................
   1   1.0000E-10  2.0000E-10   0.000       0.000       0.000       0.000       0.000       0.000       0.000       0.000    
   2   2.0000E-10  1.0000E-10  2.0000E-10   0.000       0.000      8.0000E-10  8.0000E-10  5.0000E-10   0.000       0.000    
   3    0.000      5.0000E-10  1.0000E-10  1.0000E-10  8.0000E-10  8.0000E-10  5.0000E-10  5.0000E-10   0.000       0.000    
   4   8.0000E-10  5.0000E-10  1.0000E-10  1.0000E-10  1.0000E-10  1.0000E-10  1.0000E-10  1.0000E-10  2.0000E-10   0.000    
   5   8.0000E-10  5.0000E-10  1.0000E-10  1.0000E-10  1.0000E-10  1.0000E-10  1.0000E-10  1.0000E-10  1.0000E-10  1.0000E-10
   6   8.0000E-10  5.0000E-10  5.0000E-10  2.0000E-10  2.0000E-10  1.0000E-10  1.0000E-10  1.0000E-10  1.0000E-10  5.0000E-10
   7   8.0000E-10  5.0000E-10  5.0000E-10  2.0000E-10  2.0000E-10  1.0000E-10  1.0000E-10  2.0000E-10  2.0000E-10   0.000    
   8    0.000      5.0000E-10  5.0000E-10  2.0000E-10  2.0000E-10  1.0000E-10  1.0000E-10  2.0000E-10  5.0000E-10   0.000    
   9    0.000      5.0000E-10  5.0000E-10  2.0000E-10  2.0000E-10  1.0000E-10  1.0000E-10  2.0000E-10  5.0000E-10   0.000    
  10    0.000      5.0000E-10  5.0000E-10  2.0000E-10  2.0000E-10  1.0000E-10  1.0000E-10  2.0000E-10  5.0000E-10  8.0000E-10
  11    0.000      1.0000E-10  1.0000E-10  1.0000E-10  1.0000E-10  1.0000E-10  1.0000E-10  2.0000E-10  5.0000E-10   0.000    
  12   1.0000E-10  1.0000E-10  1.0000E-10  1.0000E-10  1.0000E-10  1.0000E-10  1.0000E-10  1.0000E-10  2.0000E-10   0.000    
  13   1.0000E-10  1.0000E-10  2.0000E-10  2.0000E-10  2.0000E-10  2.0000E-10  2.0000E-10  1.0000E-10  1.0000E-10   0.000    
  14    0.000      2.0000E-10  5.0000E-10  5.0000E-10  5.0000E-10  5.0000E-10  5.0000E-10  2.0000E-10  1.0000E-10   0.000    
  15    0.000       0.000      8.0000E-10  8.0000E-10  8.0000E-10  8.0000E-10   0.000       0.000       0.000       0.000    

                  ET RATE =  5.000000E-09

 USING ET EXTINCTION DEPTH FROM PREVIOUS STRESS PERIOD. CURRENT PERIOD IS:      23

 USING EXTINCTION WATER CONTENT FROM PREVIOUS STRESS PERIOD. CURRENT PERIOD IS:      23

 USING AIR ENTRY PRESSURE FROM PREVIOUS STRESS PERIOD. CURRENT PERIOD IS:      23

 USING ROOT PRESSURE HEAD FROM PREVIOUS STRESS PERIOD. CURRENT PERIOD IS:      23

 USING ROOT ACTIVITY FROM PREVIOUS STRESS PERIOD. CURRENT PERIOD IS:      23

 PROCESSING AG STRESS PERIOD DATA

 READING AG STRESS PERIOD DATA

 READING IRRIGATION SEGMENT

 READING IRRIGATION WELL

 READING SUPPLEMENTAL WELL

 NO IRRPOND OR REUSING IRRPOND DATA FROM LAST STRESS PERIOD

 END PROCESSING AG STRESS PERIOD DATA OPTIONS
 
 SOLVING FOR HEAD 
                                                   Max.-Head-Change                         Max.-Flux-Residual
  Residual-Control   Outer-Iter.   Inner-Iter.     Column Row Layer    Maximum-Head-Change  Column Row Layer    Maximum-Flux-Residual          L2-NORM 
          0                 1           2             4    7     1       0.5627123259E-01       4    7    1         0.2954937501E+01      0.6645347112E+01
          0                 2           2             4    7     1      -0.5473718709E-02       4    7    1        -0.2954961569E+00      0.6649047994E+00
          0                 3           2             4    7     1       0.3727396084E-03       4    7    1         0.2068471717E-01      0.4654314086E-01
          0                 4           1             4    7     1      -0.1483165942E-04       4    7    1        -0.8460062268E-03      0.1903602186E-02

    ------------------------------------------------
       NWT REQUIRED            4 OUTER ITERATIONS 
       AND A TOTAL OF          7 INNER ITERATIONS.
    ------------------------------------------------

 NO OUTPUT CONTROL FOR STRESS PERIOD   23   TIME STEP    1
 
 SOLVING FOR HEAD 
                                                   Max.-Head-Change                         Max.-Flux-Residual
  Residual-Control   Outer-Iter.   Inner-Iter.     Column Row Layer    Maximum-Head-Change  Column Row Layer    Maximum-Flux-Residual          L2-NORM 
          0                 1           2             4    7     1       0.5566107899E-01       4    7    1         0.2923704145E+01      0.6513483490E+01
          0                 2           2             4    7     1      -0.5414341567E-02       4    7    1        -0.2923729017E+00      0.6513469519E+00
          0                 3           2             4    7     1       0.3686962329E-03       4    7    1         0.2046608843E-01      0.4559418509E-01
          0                 4           1             4    7     1      -0.1467076964E-04       4    7    1        -0.8370642895E-03      0.1864806934E-02

    ------------------------------------------------
       NWT REQUIRED            4 OUTER ITERATIONS 
       AND A TOTAL OF          7 INNER ITERATIONS.
    ------------------------------------------------

 NO OUTPUT CONTROL FOR STRESS PERIOD   23   TIME STEP    2
 
 SOLVING FOR HEAD 
                                                   Max.-Head-Change                         Max.-Flux-Residual
  Residual-Control   Outer-Iter.   Inner-Iter.     Column Row Layer    Maximum-Head-Change  Column Row Layer    Maximum-Flux-Residual          L2-NORM 
          0                 1           2             4    7     1       0.5504339177E-01       4    7    1         0.2892004882E+01      0.6386616024E+01
          0                 2           2             4    7     1      -0.5354258448E-02       4    7    1        -0.2892030419E+00      0.6386606243E+00
          0                 3           2             4    7     1       0.3646047851E-03       4    7    1         0.2024419752E-01      0.4470614579E-01
          0                 4           1             4    7     1      -0.1450796677E-04       4    7    1        -0.8279889321E-03      0.1828481765E-02

    ------------------------------------------------
       NWT REQUIRED            4 OUTER ITERATIONS 
       AND A TOTAL OF          7 INNER ITERATIONS.
    ------------------------------------------------

 NO OUTPUT CONTROL FOR STRESS PERIOD   23   TIME STEP    3
 
 SOLVING FOR HEAD 
                                                   Max.-Head-Change                         Max.-Flux-Residual
  Residual-Control   Outer-Iter.   Inner-Iter.     Column Row Layer    Maximum-Head-Change  Column Row Layer    Maximum-Flux-Residual          L2-NORM 
          0                 1           2             4    7     1       0.5441947564E-01       4    7    1         0.2859913552E+01      0.6264462294E+01
          0                 2           2             4    7     1      -0.5293569239E-02       4    7    1        -0.2859939629E+00      0.6264456469E+00
          0                 3           2             4    7     1       0.3604720675E-03       4    7    1         0.2001956140E-01      0.4385111164E-01
          0                 4           1             4    7     1      -0.1434352254E-04       4    7    1        -0.8188013194E-03      0.1793503158E-02

    ------------------------------------------------
       NWT REQUIRED            4 OUTER ITERATIONS 
       AND A TOTAL OF          7 INNER ITERATIONS.
    ------------------------------------------------

 NO OUTPUT CONTROL FOR STRESS PERIOD   23   TIME STEP    4
 
 SOLVING FOR HEAD 
                                                   Max.-Head-Change                         Max.-Flux-Residual
  Residual-Control   Outer-Iter.   Inner-Iter.     Column Row Layer    Maximum-Head-Change  Column Row Layer    Maximum-Flux-Residual          L2-NORM 
          0                 1           2             4    7     1       0.5379057582E-01       4    7    1         0.2827499242E+01      0.6146747561E+01
          0                 2           2             4    7     1      -0.5232395083E-02       4    7    1        -0.2827525747E+00      0.6146745017E+00
          0                 3           2             4    7     1       0.3563063278E-03       4    7    1         0.1979266371E-01      0.4302713699E-01
          0                 4           1             4    7     1      -0.1417776378E-04       4    7    1        -0.8095211929E-03      0.1759801914E-02

    ------------------------------------------------
       NWT REQUIRED            4 OUTER ITERATIONS 
       AND A TOTAL OF          7 INNER ITERATIONS.
    ------------------------------------------------

 NO OUTPUT CONTROL FOR STRESS PERIOD   23   TIME STEP    5
 
 SOLVING FOR HEAD 
                                                   Max.-Head-Change                         Max.-Flux-Residual
  Residual-Control   Outer-Iter.   Inner-Iter.     Column Row Layer    Maximum-Head-Change  Column Row Layer    Maximum-Flux-Residual          L2-NORM 
          0                 1           2             4    7     1       0.5315771256E-01       4    7    1         0.2794819255E+01      0.6033202528E+01
          0                 2           2             4    7     1      -0.5170835238E-02       4    7    1        -0.2794846083E+00      0.6033202894E+00
          0                 3           2             4    7     1       0.3521143254E-03       4    7    1         0.1956390563E-01      0.4223236749E-01
          0                 4           1             4    7     1      -0.1401096023E-04       4    7    1        -0.8001649744E-03      0.1727338875E-02

    ------------------------------------------------
       NWT REQUIRED            4 OUTER ITERATIONS 
       AND A TOTAL OF          7 INNER ITERATIONS.
    ------------------------------------------------

 NO OUTPUT CONTROL FOR STRESS PERIOD   23   TIME STEP    6
 
 SOLVING FOR HEAD 
                                                   Max.-Head-Change                         Max.-Flux-Residual
  Residual-Control   Outer-Iter.   Inner-Iter.     Column Row Layer    Maximum-Head-Change  Column Row Layer    Maximum-Flux-Residual          L2-NORM 
          0                 1           2             4    7     1       0.5252209640E-01       4    7    1         0.2761941013E+01      0.5923597848E+01
          0                 2           2             4    7     1      -0.5109007470E-02       4    7    1        -0.2761968070E+00      0.5923600570E+00
          0                 3           2             4    7     1       0.3479040800E-03       4    7    1         0.1933375923E-01      0.4146516398E-01
          0                 4           1             4    7     1      -0.1384343046E-04       4    7    1        -0.7907519694E-03      0.1695929196E-02

    ------------------------------------------------
       NWT REQUIRED            4 OUTER ITERATIONS 
       AND A TOTAL OF          7 INNER ITERATIONS.
    ------------------------------------------------

 NO OUTPUT CONTROL FOR STRESS PERIOD   23   TIME STEP    7
 
 SOLVING FOR HEAD 
                                                   Max.-Head-Change                         Max.-Flux-Residual
  Residual-Control   Outer-Iter.   Inner-Iter.     Column Row Layer    Maximum-Head-Change  Column Row Layer    Maximum-Flux-Residual          L2-NORM 
          0                 1           2             4    7     1       0.5188458597E-01       4    7    1         0.2728912755E+01      0.5817710746E+01
          0                 2           2             4    7     1      -0.5046995316E-02       4    7    1        -0.2728939956E+00      0.5817715448E+00
          0                 3           2             4    7     1       0.3436812803E-03       4    7    1         0.1910256221E-01      0.4072396396E-01
          0                 4           1             4    7     1      -0.1367540127E-04       4    7    1        -0.7812959943E-03      0.1665605875E-02

    ------------------------------------------------
       NWT REQUIRED            4 OUTER ITERATIONS 
       AND A TOTAL OF          7 INNER ITERATIONS.
    ------------------------------------------------

 NO OUTPUT CONTROL FOR STRESS PERIOD   23   TIME STEP    8
 
 SOLVING FOR HEAD 
                                                   Max.-Head-Change                         Max.-Flux-Residual
  Residual-Control   Outer-Iter.   Inner-Iter.     Column Row Layer    Maximum-Head-Change  Column Row Layer    Maximum-Flux-Residual          L2-NORM 
          0                 1           2             4    7     1       0.5124624157E-01       4    7    1         0.2695793527E+01      0.5715353578E+01
          0                 2           2             4    7     1      -0.4984901925E-02       4    7    1        -0.2695820798E+00      0.5715360054E+00
          0                 3           2             4    7     1       0.3394529494E-03       4    7    1         0.1887072795E-01      0.4000748552E-01
          0                 4           1             4    7     1      -0.1350715184E-04       4    7    1        -0.7718139527E-03      0.1636304637E-02

    ------------------------------------------------
       NWT REQUIRED            4 OUTER ITERATIONS 
       AND A TOTAL OF          7 INNER ITERATIONS.
    ------------------------------------------------

 NO OUTPUT CONTROL FOR STRESS PERIOD   23   TIME STEP    9
 
 SOLVING FOR HEAD 
                                                   Max.-Head-Change                         Max.-Flux-Residual
  Residual-Control   Outer-Iter.   Inner-Iter.     Column Row Layer    Maximum-Head-Change  Column Row Layer    Maximum-Flux-Residual          L2-NORM 
          0                 1           2             4    7     1       0.5060777744E-01       4    7    1         0.2662623777E+01      0.5616322907E+01
          0                 2           2             4    7     1      -0.4922796785E-02       4    7    1        -0.2662651046E+00      0.5616330808E+00
          0                 3           2             4    7     1       0.3352238196E-03       4    7    1         0.1863853956E-01      0.3931428715E-01
          0                 4           1             4    7     1      -0.1333887132E-04       4    7    1        -0.7623174620E-03      0.1607956606E-02

    ------------------------------------------------
       NWT REQUIRED            4 OUTER ITERATIONS 
       AND A TOTAL OF          7 INNER ITERATIONS.
    ------------------------------------------------

 NO OUTPUT CONTROL FOR STRESS PERIOD   23   TIME STEP   10
 
 SOLVING FOR HEAD 
                                                   Max.-Head-Change                         Max.-Flux-Residual
  Residual-Control   Outer-Iter.   Inner-Iter.     Column Row Layer    Maximum-Head-Change  Column Row Layer    Maximum-Flux-Residual          L2-NORM 
          0                 1           2             4    7     1       0.4997011611E-01       4    7    1         0.2629455067E+01      0.5520458201E+01
          0                 2           2             4    7     1      -0.4860769644E-02       4    7    1        -0.2629482274E+00      0.5520467449E+00
          0                 3           2             4    7     1       0.3310000021E-03       4    7    1         0.1840635813E-01      0.3864325320E-01
          0                 4           1             4    7     1      -0.1317080172E-04       4    7    1        -0.7528212154E-03      0.1580505591E-02

    ------------------------------------------------
       NWT REQUIRED            4 OUTER ITERATIONS 
       AND A TOTAL OF          7 INNER ITERATIONS.
    ------------------------------------------------

 NO OUTPUT CONTROL FOR STRESS PERIOD   23   TIME STEP   11
 
 SOLVING FOR HEAD 
                                                   Max.-Head-Change                         Max.-Flux-Residual
  Residual-Control   Outer-Iter.   Inner-Iter.     Column Row Layer    Maximum-Head-Change  Column Row Layer    Maximum-Flux-Residual          L2-NORM 
          0                 1           2             4    7     1       0.4933384237E-01       4    7    1         0.2596320697E+01      0.5427590211E+01
          0                 2           2             4    7     1      -0.4798877396E-02       4    7    1        -0.2596347787E+00      0.5427600327E+00
          0                 3           2             4    7     1       0.3267853710E-03       4    7    1         0.1817441673E-01      0.3799318397E-01
          0                 4           1             4    7     1      -0.1300309742E-04       4    7    1        -0.7433347982E-03      0.1553922729E-02

    ------------------------------------------------
       NWT REQUIRED            4 OUTER ITERATIONS 
       AND A TOTAL OF          7 INNER ITERATIONS.
    ------------------------------------------------

 NO OUTPUT CONTROL FOR STRESS PERIOD   23   TIME STEP   12
 
 SOLVING FOR HEAD 
                                                   Max.-Head-Change                         Max.-Flux-Residual
  Residual-Control   Outer-Iter.   Inner-Iter.     Column Row Layer    Maximum-Head-Change  Column Row Layer    Maximum-Flux-Residual          L2-NORM 
          0                 1           2             4    7     1       0.4869975963E-01       4    7    1         0.2563265521E+01      0.5337582890E+01
          0                 2           2             4    7     1      -0.4737198198E-02       4    7    1        -0.2563292445E+00      0.5337593951E+00
          0                 3           2             4    7     1       0.3225852483E-03       4    7    1         0.1794302938E-01      0.3736314438E-01
          0                 4           1             4    7     1      -0.1283597059E-04       4    7    1        -0.7338710443E-03      0.1528151338E-02

    ------------------------------------------------
       NWT REQUIRED            4 OUTER ITERATIONS 
       AND A TOTAL OF          7 INNER ITERATIONS.
    ------------------------------------------------

 NO OUTPUT CONTROL FOR STRESS PERIOD   23   TIME STEP   13
 
 SOLVING FOR HEAD 
                                                   Max.-Head-Change                         Max.-Flux-Residual
  Residual-Control   Outer-Iter.   Inner-Iter.     Column Row Layer    Maximum-Head-Change  Column Row Layer    Maximum-Flux-Residual          L2-NORM 
          0                 1           2             4    7     1       0.4806833374E-01       4    7    1         0.2530316661E+01      0.5250276295E+01
          0                 2           2             4    7     1      -0.4675777375E-02       4    7    1        -0.2530343374E+00      0.5250287996E+00
          0                 3           2             4    7     1       0.3184027211E-03       4    7    1         0.1771238599E-01      0.3675200910E-01
          0                 4           1             4    7     1      -0.1266954386E-04       4    7    1        -0.7244377148E-03      0.1503164233E-02

    ------------------------------------------------
       NWT REQUIRED            4 OUTER ITERATIONS 
       AND A TOTAL OF          7 INNER ITERATIONS.
    ------------------------------------------------

 NO OUTPUT CONTROL FOR STRESS PERIOD   23   TIME STEP   14
 
 SOLVING FOR HEAD 
                                                   Max.-Head-Change                         Max.-Flux-Residual
  Residual-Control   Outer-Iter.   Inner-Iter.     Column Row Layer    Maximum-Head-Change  Column Row Layer    Maximum-Flux-Residual          L2-NORM 
          0                 1           2             4    7     1       0.4744026034E-01       4    7    1         0.2497512808E+01      0.5165558596E+01
          0                 2           2             4    7     1      -0.4614682599E-02       4    7    1        -0.2497539272E+00      0.5165570882E+00
          0                 3           2             4    7     1       0.3142423969E-03       4    7    1         0.1748275742E-01      0.3615898788E-01
          0                 4           1             4    7     1      -0.1250400050E-04       4    7    1        -0.7150458841E-03      0.1478904501E-02

    ------------------------------------------------
       NWT REQUIRED            4 OUTER ITERATIONS 
       AND A TOTAL OF          7 INNER ITERATIONS.
    ------------------------------------------------

 NO OUTPUT CONTROL FOR STRESS PERIOD   23   TIME STEP   15
 
 SOLVING FOR HEAD 
                                                   Max.-Head-Change                         Max.-Flux-Residual
  Residual-Control   Outer-Iter.   Inner-Iter.     Column Row Layer    Maximum-Head-Change  Column Row Layer    Maximum-Flux-Residual          L2-NORM 
          0                 1           2             4    7     1       0.4681603771E-01       4    7    1         0.2464882760E+01      0.5083301644E+01
          0                 2           2             4    7     1      -0.4553962349E-02       4    7    1        -0.2464908942E+00      0.5083314266E+00
          0                 3           2             4    7     1       0.3101075769E-03       4    7    1         0.1725434528E-01      0.3558319247E-01
          0                 4           1             4    7     1      -0.1233947211E-04       4    7    1        -0.7057038119E-03      0.1455351052E-02

    ------------------------------------------------
       NWT REQUIRED            4 OUTER ITERATIONS 
       AND A TOTAL OF          7 INNER ITERATIONS.
    ------------------------------------------------

 NO OUTPUT CONTROL FOR STRESS PERIOD   23   TIME STEP   16
 
 SOLVING FOR HEAD 
                                                   Max.-Head-Change                         Max.-Flux-Residual
  Residual-Control   Outer-Iter.   Inner-Iter.     Column Row Layer    Maximum-Head-Change  Column Row Layer    Maximum-Flux-Residual          L2-NORM 
          0                 1           2             4    7     1       0.4619599286E-01       4    7    1         0.2432445084E+01      0.5003396271E+01
          0                 2           2             4    7     1      -0.4493648439E-02       4    7    1        -0.2432470953E+00      0.5003409178E+00
          0                 3           2             4    7     1       0.3060004277E-03       4    7    1         0.1702727956E-01      0.3502386355E-01
          0                 4           1             4    7     1      -0.1217604480E-04       4    7    1        -0.6964168088E-03      0.1432478508E-02

    ------------------------------------------------
       NWT REQUIRED            4 OUTER ITERATIONS 
       AND A TOTAL OF          7 INNER ITERATIONS.
    ------------------------------------------------

 NO OUTPUT CONTROL FOR STRESS PERIOD   23   TIME STEP   17
 
 SOLVING FOR HEAD 
                                                   Max.-Head-Change                         Max.-Flux-Residual
  Residual-Control   Outer-Iter.   Inner-Iter.     Column Row Layer    Maximum-Head-Change  Column Row Layer    Maximum-Flux-Residual          L2-NORM 
          0                 1           2             4    7     1       0.4558067595E-01       4    7    1         0.2400231275E+01      0.4925729057E+01
          0                 2           2             4    7     1      -0.4433794389E-02       4    7    1        -0.2400256807E+00      0.4925742234E+00
          0                 3           2             4    7     1       0.3019245937E-03       4    7    1         0.1680178075E-01      0.3448020275E-01
          0                 4           1             4    7     1      -0.1201386374E-04       4    7    1        -0.6871939063E-03      0.1410242236E-02

    ------------------------------------------------
       NWT REQUIRED            4 OUTER ITERATIONS 
       AND A TOTAL OF          7 INNER ITERATIONS.
    ------------------------------------------------

 NO OUTPUT CONTROL FOR STRESS PERIOD   23   TIME STEP   18
 
 SOLVING FOR HEAD 
                                                   Max.-Head-Change                         Max.-Flux-Residual
  Residual-Control   Outer-Iter.   Inner-Iter.     Column Row Layer    Maximum-Head-Change  Column Row Layer    Maximum-Flux-Residual          L2-NORM 
          0                 1           2             4    7     1       0.4497046199E-01       4    7    1         0.2368262589E+01      0.4850215902E+01
          0                 2           2             4    7     1      -0.4374436684E-02       4    7    1        -0.2368287760E+00      0.4850229165E+00
          0                 3           2             4    7     1       0.2978825596E-03       4    7    1         0.1657799768E-01      0.3395160989E-01
          0                 4           1             4    7     1      -0.1185302749E-04       4    7    1        -0.6780411700E-03      0.1388625004E-02

    ------------------------------------------------
       NWT REQUIRED            4 OUTER ITERATIONS 
       AND A TOTAL OF          7 INNER ITERATIONS.
    ------------------------------------------------

 NO OUTPUT CONTROL FOR STRESS PERIOD   23   TIME STEP   19
 
 SOLVING FOR HEAD 
                                                   Max.-Head-Change                         Max.-Flux-Residual
  Residual-Control   Outer-Iter.   Inner-Iter.     Column Row Layer    Maximum-Head-Change  Column Row Layer    Maximum-Flux-Residual          L2-NORM 
          0                 1           2             4    7     1       0.4436568394E-01       4    7    1         0.2336558470E+01      0.4776750862E+01
          0                 2           2             4    7     1      -0.4315607717E-02       4    7    1        -0.2336583261E+00      0.4776764118E+00
          0                 3           2             4    7     1       0.2938765303E-03       4    7    1         0.1635606644E-01      0.3343735022E-01
          0                 4           1             4    7     1      -0.1169362377E-04       4    7    1        -0.6689641700E-03      0.1367592208E-02

    ------------------------------------------------
       NWT REQUIRED            4 OUTER ITERATIONS 
       AND A TOTAL OF          7 INNER ITERATIONS.
    ------------------------------------------------

 NO OUTPUT CONTROL FOR STRESS PERIOD   23   TIME STEP   20
 
 SOLVING FOR HEAD 
                                                   Max.-Head-Change                         Max.-Flux-Residual
  Residual-Control   Outer-Iter.   Inner-Iter.     Column Row Layer    Maximum-Head-Change  Column Row Layer    Maximum-Flux-Residual          L2-NORM 
          0                 1           2             4    7     1       0.4376663896E-01       4    7    1         0.2305136181E+01      0.4705249419E+01
          0                 2           2             4    7     1      -0.4257336398E-02       4    7    1        -0.2305160577E+00      0.4705262667E+00
          0                 3           2             4    7     1       0.2899084750E-03       4    7    1         0.1613610793E-01      0.3293683928E-01
          0                 4           1             4    7     1      -0.1153573110E-04       4    7    1        -0.6599678482E-03      0.1347118449E-02

    ------------------------------------------------
       NWT REQUIRED            4 OUTER ITERATIONS 
       AND A TOTAL OF          7 INNER ITERATIONS.
    ------------------------------------------------

 NO OUTPUT CONTROL FOR STRESS PERIOD   23   TIME STEP   21
 
 SOLVING FOR HEAD 
                                                   Max.-Head-Change                         Max.-Flux-Residual
  Residual-Control   Outer-Iter.   Inner-Iter.     Column Row Layer    Maximum-Head-Change  Column Row Layer    Maximum-Flux-Residual          L2-NORM 
          0                 1           2             4    7     1       0.4317359532E-01       4    7    1         0.2274011130E+01      0.4635638796E+01
          0                 2           2             4    7     1      -0.4199648826E-02       4    7    1        -0.2274035118E+00      0.4635651969E+00
          0                 3           2             4    7     1       0.2859801710E-03       4    7    1         0.1591823001E-01      0.3244956320E-01
          0                 4           1             4    7     1      -0.1137941994E-04       4    7    1        -0.6510566072E-03      0.1327186543E-02

    ------------------------------------------------
       NWT REQUIRED            4 OUTER ITERATIONS 
       AND A TOTAL OF          7 INNER ITERATIONS.
    ------------------------------------------------

 NO OUTPUT CONTROL FOR STRESS PERIOD   23   TIME STEP   22
 
 SOLVING FOR HEAD 
                                                   Max.-Head-Change                         Max.-Flux-Residual
  Residual-Control   Outer-Iter.   Inner-Iter.     Column Row Layer    Maximum-Head-Change  Column Row Layer    Maximum-Flux-Residual          L2-NORM 
          0                 1           2             4    7     1       0.4258679065E-01       4    7    1         0.2243197227E+01      0.4567829168E+01
          0                 2           2             4    7     1      -0.4142568119E-02       4    7    1        -0.2243220795E+00      0.4567842210E+00
          0                 3           2             4    7     1       0.2820931927E-03       4    7    1         0.1570253006E-01      0.3197489727E-01
          0                 4           1             4    7     1      -0.1122475384E-04       4    7    1        -0.6422344845E-03      0.1307774466E-02

    ------------------------------------------------
       NWT REQUIRED            4 OUTER ITERATIONS 
       AND A TOTAL OF          7 INNER ITERATIONS.
    ------------------------------------------------

 NO OUTPUT CONTROL FOR STRESS PERIOD   23   TIME STEP   23
 
 SOLVING FOR HEAD 
                                                   Max.-Head-Change                         Max.-Flux-Residual
  Residual-Control   Outer-Iter.   Inner-Iter.     Column Row Layer    Maximum-Head-Change  Column Row Layer    Maximum-Flux-Residual          L2-NORM 
          0                 1           2             4    7     1       0.4200642845E-01       4    7    1         0.2212706793E+01      0.4501755507E+01
          0                 2           2             4    7     1      -0.4086113664E-02       4    7    1        -0.2212729932E+00      0.4501597068E+00
          0                 3           2             4    7     1       0.2782488595E-03       4    7    1         0.1548909432E-01      0.3151117709E-01
          0                 4           1             4    7     1      -0.1107178403E-04       4    7    1        -0.6335049425E-03      0.1288808892E-02

    ------------------------------------------------
       NWT REQUIRED            4 OUTER ITERATIONS 
       AND A TOTAL OF          7 INNER ITERATIONS.
    ------------------------------------------------

 NO OUTPUT CONTROL FOR STRESS PERIOD   23   TIME STEP   24
 
 SOLVING FOR HEAD 
                                                   Max.-Head-Change                         Max.-Flux-Residual
  Residual-Control   Outer-Iter.   Inner-Iter.     Column Row Layer    Maximum-Head-Change  Column Row Layer    Maximum-Flux-Residual          L2-NORM 
          0                 1           2             4    7     1       0.4143282578E-01       4    7    1         0.2182557678E+01      0.4437367202E+01
          0                 2           2             4    7     1      -0.4030317539E-02       4    7    1        -0.2182580382E+00      0.4437379946E+00
          0                 3           2             4    7     1       0.2744493563E-03       4    7    1         0.1527804779E-01      0.3106166146E-01
          0                 4           1             4    7     1      -0.1092059800E-04       4    7    1        -0.6248731233E-03      0.1270422448E-02

    ------------------------------------------------
       NWT REQUIRED            4 OUTER ITERATIONS 
       AND A TOTAL OF          7 INNER ITERATIONS.
    ------------------------------------------------

 NO OUTPUT CONTROL FOR STRESS PERIOD   23   TIME STEP   25
 
 SOLVING FOR HEAD 
                                                   Max.-Head-Change                         Max.-Flux-Residual
  Residual-Control   Outer-Iter.   Inner-Iter.     Column Row Layer    Maximum-Head-Change  Column Row Layer    Maximum-Flux-Residual          L2-NORM 
          0                 1           2             4    7     1       0.4086599734E-01       4    7    1         0.2152751703E+01      0.4374600846E+01
          0                 2           2             4    7     1      -0.3975179944E-02       4    7    1        -0.2152773966E+00      0.4374613511E+00
          0                 3           2             4    7     1       0.2706946968E-03       4    7    1         0.1506940320E-01      0.3062229362E-01
          0                 4           1             4    7     1      -0.1077119691E-04       4    7    1        -0.6163395551E-03      0.1252457469E-02

    ------------------------------------------------
       NWT REQUIRED            4 OUTER ITERATIONS 
       AND A TOTAL OF          7 INNER ITERATIONS.
    ------------------------------------------------

 NO OUTPUT CONTROL FOR STRESS PERIOD   23   TIME STEP   26
 
 SOLVING FOR HEAD 
                                                   Max.-Head-Change                         Max.-Flux-Residual
  Residual-Control   Outer-Iter.   Inner-Iter.     Column Row Layer    Maximum-Head-Change  Column Row Layer    Maximum-Flux-Residual          L2-NORM 
          0                 1           2             4    7     1       0.4030608016E-01       4    7    1         0.2123296972E+01      0.4313377301E+01
          0                 2           2             4    7     1      -0.3920714620E-02       4    7    1        -0.2123318792E+00      0.4313389736E+00
          0                 3           2             4    7     1       0.2669858166E-03       4    7    1         0.1486321732E-01      0.3019372713E-01
          0                 4           1             4    7     1      -0.1062361668E-04       4    7    1        -0.6079065215E-03      0.1237512954E-02

    ------------------------------------------------
       NWT REQUIRED            4 OUTER ITERATIONS 
       AND A TOTAL OF          7 INNER ITERATIONS.
    ------------------------------------------------

 NO OUTPUT CONTROL FOR STRESS PERIOD   23   TIME STEP   27
 
 SOLVING FOR HEAD 
                                                   Max.-Head-Change                         Max.-Flux-Residual
  Residual-Control   Outer-Iter.   Inner-Iter.     Column Row Layer    Maximum-Head-Change  Column Row Layer    Maximum-Flux-Residual          L2-NORM 
          0                 1           2             4    7     1       0.3975344925E-01       4    7    1         0.2094215126E+01      0.4253642553E+01
          0                 2           2             4    7     1      -0.3866958048E-02       4    7    1        -0.2094236501E+00      0.4253654786E+00
          0                 3           2             4    7     1       0.2633251996E-03       4    7    1         0.1465964161E-01      0.2977558675E-01
          0                 4           1             4    7     1      -0.1047795736E-04       4    7    1        -0.5995802626E-03      0.1217821668E-02

    ------------------------------------------------
       NWT REQUIRED            4 OUTER ITERATIONS 
       AND A TOTAL OF          7 INNER ITERATIONS.
    ------------------------------------------------

 NO OUTPUT CONTROL FOR STRESS PERIOD   23   TIME STEP   28
 
 SOLVING FOR HEAD 
                                                   Max.-Head-Change                         Max.-Flux-Residual
  Residual-Control   Outer-Iter.   Inner-Iter.     Column Row Layer    Maximum-Head-Change  Column Row Layer    Maximum-Flux-Residual          L2-NORM 
          0                 1           2             4    7     1       0.3920791911E-01       4    7    1         0.2065496495E+01      0.4195339325E+01
          0                 2           2             4    7     1      -0.3813892187E-02       4    7    1        -0.2065517423E+00      0.4195351240E+00
          0                 3           2             4    7     1       0.2597116179E-03       4    7    1         0.1445860843E-01      0.2936745582E-01
          0                 4           1             4    7     1      -0.1033416932E-04       4    7    1        -0.5913579826E-03      0.1201126016E-02

    ------------------------------------------------
       NWT REQUIRED            4 OUTER ITERATIONS 
       AND A TOTAL OF          7 INNER ITERATIONS.
    ------------------------------------------------

 NO OUTPUT CONTROL FOR STRESS PERIOD   23   TIME STEP   29
 
 SOLVING FOR HEAD 
                                                   Max.-Head-Change                         Max.-Flux-Residual
  Residual-Control   Outer-Iter.   Inner-Iter.     Column Row Layer    Maximum-Head-Change  Column Row Layer    Maximum-Flux-Residual          L2-NORM 
          0                 1           2             4    7     1       0.3866969904E-01       4    7    1         0.2037153298E+01      0.4138418578E+01
          0                 2           2             4    7     1      -0.3761537398E-02       4    7    1        -0.2037173780E+00      0.4138430181E+00
          0                 3           2             4    7     1       0.2561464572E-03       4    7    1         0.1426020324E-01      0.2896900758E-01
          0                 4           1             4    7     1      -0.1019230874E-04       4    7    1        -0.5832432244E-03      0.1184835815E-02

    ------------------------------------------------
       NWT REQUIRED            4 OUTER ITERATIONS 
       AND A TOTAL OF          7 INNER ITERATIONS.
    ------------------------------------------------

 NO OUTPUT CONTROL FOR STRESS PERIOD   23   TIME STEP   30



 STREAM LISTING     PERIOD     23   STEP       30

 LAYER ROW COL. STREAM  RCH.  FLOW INTO     FLOW TO   FLOW OUT OF   OVRLND.     DIRECT     STREAM       STREAM     STREAM     STREAM   STREAMBED  STREAMBED
                SEG.NO.  NO.  STRM. RCH.    AQUIFER    STRM. RCH.    RUNOFF     PRECIP       ET          HEAD       DEPTH      WIDTH   CONDCTNC.   GRADIENT

   1    1    1     1     1    8.2501E+00  1.3178E-01   8.1183E+00  0.000E+00  0.000E+00  0.000E+00  1.09389E+03  8.424E-01  7.622E+00  3.430E-02  1.281E+00
   1    2    2     1     2    8.1183E+00  2.0241E-01   7.9159E+00  0.000E+00  0.000E+00  0.000E+00  1.08890E+03  8.367E-01  7.537E+00  5.276E-02  1.279E+00
   1    3    3     1     3    7.9159E+00  1.7099E-01   7.7449E+00  0.000E+00  0.000E+00  0.000E+00  1.08325E+03  8.302E-01  7.440E+00  4.464E-02  1.277E+00
   1    3    4     1     4    7.7449E+00  1.5612E-01   7.5888E+00  0.000E+00  0.000E+00  0.000E+00  1.07823E+03  8.244E-01  7.355E+00  4.082E-02  1.275E+00
   1    4    5     2     1    5.5888E+00  2.7178E-01   5.3170E+00  0.000E+00  0.000E+00  0.000E+00  1.07242E+03  4.843E-01  1.200E+01  7.800E-02  1.161E+00
   1    5    6     2     2    5.3170E+00  2.0828E-01   5.1088E+00  0.000E+00  0.000E+00  0.000E+00  1.06698E+03  4.714E-01  1.200E+01  6.000E-02  1.157E+00
   1    6    6     2     3    5.1088E+00  2.0760E-01   4.9012E+00  0.000E+00  0.000E+00  0.000E+00  1.06225E+03  4.600E-01  1.200E+01  6.000E-02  1.153E+00
   1    7    6     2     4    4.9012E+00  2.0691E-01   4.6943E+00  0.000E+00  0.000E+00  0.000E+00  1.05752E+03  4.485E-01  1.200E+01  6.000E-02  1.150E+00
   1    8    6     2     5    4.6943E+00  2.0621E-01   4.4880E+00  0.000E+00  0.000E+00  0.000E+00  1.05280E+03  4.368E-01  1.200E+01  6.000E-02  1.146E+00
   1    3    5     3     1    2.0000E+00  2.8252E-01   1.7175E+00  0.000E+00  0.000E+00  0.000E+00  1.07555E+03  1.909E+00  9.636E+00  7.227E-02  1.955E+00
   1    3    6     3     2    1.7175E+00  2.4905E-01   1.4684E+00  0.000E+00  0.000E+00  0.000E+00  1.07264E+03  1.727E+00  8.909E+00  6.682E-02  1.864E+00
   1    3    7     3     3    1.4684E+00  1.9718E-01   1.2712E+00  0.000E+00  0.000E+00  0.000E+00  1.06987E+03  1.555E+00  8.218E+00  5.547E-02  1.777E+00
   1    4    8     3     4    1.2712E+00  2.2567E-01   1.0456E+00  0.000E+00  0.000E+00  0.000E+00  1.06682E+03  1.364E+00  7.455E+00  6.709E-02  1.682E+00
   1    5    8     3     5    1.0456E+00  1.5790E-01   8.8768E-01  0.000E+00  0.000E+00  0.000E+00  1.06362E+03  1.164E+00  6.655E+00  4.991E-02  1.582E+00
   1    6    8     3     6    8.8768E-01  5.5980E-02   8.3170E-01  0.000E+00  0.000E+00  0.000E+00  1.06158E+03  1.036E+00  6.145E+00  1.844E-02  1.518E+00
   1    5   10     4     1    1.0000E+01  9.0919E-02   9.9091E+00  0.000E+00  0.000E+00  0.000E+00  1.07836E+03  6.368E-01  1.000E+01  2.500E-02  1.212E+00
   1    5    9     4     2    9.9091E+00  1.8158E-01   9.7275E+00  0.000E+00  0.000E+00  0.000E+00  1.07154E+03  6.315E-01  1.000E+01  5.000E-02  1.211E+00
   1    6    8     4     3    9.7275E+00  1.2689E-01   9.6006E+00  0.000E+00  0.000E+00  0.000E+00  1.06381E+03  6.256E-01  1.000E+01  3.500E-02  1.209E+00
   1    6    8     5     1    1.0432E+01  2.2686E-01   1.0205E+01  0.000E+00  0.000E+00  0.000E+00  1.05868E+03  6.790E-01  1.542E+01  6.166E-02  1.226E+00
   1    7    7     5     2    1.0205E+01  2.7894E-01   9.9265E+00  0.000E+00  0.000E+00  0.000E+00  1.05417E+03  6.732E-01  1.519E+01  7.594E-02  1.224E+00
   1    8    7     5     3    9.9265E+00  1.9221E-01   9.7343E+00  0.000E+00  0.000E+00  0.000E+00  1.04992E+03  6.676E-01  1.497E+01  5.241E-02  1.223E+00
   1    8    6     5     4    9.7343E+00  1.3577E-01   9.5985E+00  0.000E+00  0.000E+00  0.000E+00  1.04691E+03  6.637E-01  1.482E+01  3.706E-02  1.221E+00
   1    9    6     6     1    1.4087E+01  2.3167E-01   1.3855E+01  0.000E+00  0.000E+00  0.000E+00  1.04359E+03  8.612E-01  1.200E+01  6.000E-02  1.287E+00
   1   10    7     6     2    1.3855E+01  2.3116E-01   1.3624E+01  0.000E+00  0.000E+00  0.000E+00  1.03903E+03  8.526E-01  1.200E+01  6.000E-02  1.284E+00
   1   11    7     6     3    1.3624E+01  2.3064E-01   1.3393E+01  0.000E+00  0.000E+00  0.000E+00  1.03448E+03  8.440E-01  1.200E+01  6.000E-02  1.281E+00
   1   12    7     6     4    1.3393E+01  2.3012E-01   1.3163E+01  0.000E+00  0.000E+00  0.000E+00  1.02993E+03  8.353E-01  1.200E+01  6.000E-02  1.278E+00
   1   13    7     6     5    1.3163E+01  2.4965E-03   1.3160E+01  0.000E+00  0.000E+00  0.000E+00  1.02674E+03  8.309E-01  1.200E+01  2.400E-02  3.467E-02
   1   14    9     7     1    1.5000E+02  1.3785E+00   1.4862E+02  0.000E+00  0.000E+00  0.000E+00  1.03987E+03  2.288E+00  5.529E+01  5.593E-01  8.216E-01
   1   13    8     7     2    1.4862E+02  1.9735E+00   1.4665E+02  0.000E+00  0.000E+00  0.000E+00  1.03478E+03  2.279E+00  5.525E+01  6.147E-01  1.070E+00
   1   13    7     7     3    1.4665E+02  1.7043E+00   1.4494E+02  0.000E+00  0.000E+00  0.000E+00  1.02969E+03  2.269E+00  5.521E+01  5.584E-01  1.017E+00
   1   13    6     8     1    1.5810E+02  1.0858E+00   1.5702E+02  0.000E+00  0.000E+00  0.000E+00  1.02474E+03  2.869E+00  4.160E+01  4.240E-01  8.537E-01
   1   13    5     8     2    1.5702E+02  3.3822E-01   1.5668E+02  0.000E+00  0.000E+00  0.000E+00  1.01849E+03  2.864E+00  4.153E+01  4.232E-01  2.664E-01
   1   13    4     8     3    1.5668E+02 -1.8673E+00   1.5855E+02  0.000E+00  0.000E+00  0.000E+00  1.01224E+03  2.870E+00  4.161E+01  4.240E+00 -1.468E-01
   1   13    3     8     4    1.5855E+02 -3.3654E+00   1.6191E+02  0.000E+00  0.000E+00  0.000E+00  1.00601E+03  2.887E+00  4.187E+01  4.266E+00 -2.629E-01
   1   13    2     8     5    1.6191E+02 -2.5049E+00   1.6442E+02  0.000E+00  0.000E+00  0.000E+00  9.99782E+02  2.907E+00  4.215E+01  4.296E+00 -1.944E-01
   1   13    1     8     6    1.6442E+02 -1.9557E+00   1.6637E+02  0.000E+00  0.000E+00  0.000E+00  9.94797E+02  2.922E+00  4.237E+01  2.590E+00 -2.516E-01
   1    8    6     9     1    0.0000E+00  0.0000E+00   0.0000E+00  0.000E+00  0.000E+00  0.000E+00  1.07875E+03  0.000E+00  4.000E+00  0.000E+00  1.000E+00
   1    8    5     9     2    0.0000E+00  0.0000E+00   0.0000E+00  0.000E+00  0.000E+00  0.000E+00  1.07825E+03  0.000E+00  4.000E+00  0.000E+00  1.000E+00





UNSATURATED ZONE PACKAGE VOLUMETRIC BUDGET FOR  TIME STEP    30 STRESS PERIOD   23
  ------------------------------------------------------------------------------



     CUMULATIVE VOLUMES      L**3       RATES FOR THIS TIME STEP      L**3/T
     ------------------                 ------------------------

           IN:                                      IN:
           ---                                      ---
        INFILTRATION =  1110578314.5081          INFILTRATION =           0.8475

          OUT:                                     OUT:
          ----                                     ----
              UZF ET =   858349342.3580                UZF ET =           0.8475
        UZF RECHARGE =       73224.0000          UZF RECHARGE =       0.0000E+00

            IN - OUT =   252155748.1500              IN - OUT =       0.0000E+00

          STORAGE:                                 STORAGE:
          --------                                 --------
      STORAGE CHANGE =   252159986.6342        STORAGE CHANGE =      -8.4656E-14

 PERCENT DISCREPANCY IS DIFFERENCE BETWEEN IN-OUT MINUS CHANGE IN STORAGE
 DIVIDED BY THE AVERAGE OF IN AND OUT TIMES 100

 PERCENT DISCREPANCY =          -0.00     PERCENT DISCREPANCY =           0.00






1
  VOLUMETRIC BUDGET FOR AGRICULTURAL FIELDS AT  END OF TIME STEP   30, STRESS PERIOD  23
  ------------------------------------------------------------------------------

     CUMULATIVE VOLUMES      L**3       RATES FOR THIS TIME STEP      L**3/T
     ------------------                 ------------------------

           IN:                                      IN:
           ---                                      ---
               AG WELLS  =   697628416.0000                 AG WELLS  =           0.0000
      DIVERSION SEGMENTS =   363935712.0000        DIVERSION SEGMENTS =           0.0000
       IRRIGATION PONDS  =           0.0000         IRRIGATION PONDS  =           0.0000
           GW IRRIGATION =           0.0000             GW IRRIGATION =           0.0000
           SW IRRIGATION =           0.0000             SW IRRIGATION =           0.0000
        SYSTEM LOSSES GW =           0.0000          SYSTEM LOSSES GW =           0.0000
        SYSTEM LOSSES SW =           0.0000          SYSTEM LOSSES SW =           0.0000

                TOTAL IN =  1061564160.0000                  TOTAL IN =           0.0000

          OUT:                                     OUT:
          ----                                     ----
               AG WELLS  =           0.0000                 AG WELLS  =           0.0000
      DIVERSION SEGMENTS =           0.0000        DIVERSION SEGMENTS =           0.0000
       IRRIGATION PONDS  =           0.0000         IRRIGATION PONDS  =           0.0000
           GW IRRIGATION =   697628416.0000             GW IRRIGATION =           0.0000
           SW IRRIGATION =   363942752.0000             SW IRRIGATION =           0.0000
        SYSTEM LOSSES GW =           0.0000          SYSTEM LOSSES GW =           0.0000
        SYSTEM LOSSES SW =           0.0000          SYSTEM LOSSES SW =           0.0000

               TOTAL OUT =  1061571200.0000                 TOTAL OUT =           0.0000

                IN - OUT =       -7040.0000                  IN - OUT =           0.0000

     PERCENT DISCREPANCY =          -0.00         PERCENT DISCREPANCY =           0.00



1
  VOLUMETRIC BUDGET FOR ENTIRE MODEL AT END OF TIME STEP   30, STRESS PERIOD  23
  ------------------------------------------------------------------------------

     CUMULATIVE VOLUMES      L**3       RATES FOR THIS TIME STEP      L**3/T
     ------------------                 ------------------------

           IN:                                      IN:
           ---                                      ---
             STORAGE     =  1040020928.0000               STORAGE     =           9.1388
       CONSTANT HEAD     =           0.0000         CONSTANT HEAD     =           0.0000
     HEAD DEP BOUNDS     =    16694423.0000       HEAD DEP BOUNDS     =           0.2887
      STREAM LEAKAGE     =   684082624.0000        STREAM LEAKAGE     =          11.5699
        UZF RECHARGE     =       73223.9531          UZF RECHARGE     =           0.0000
               GW ET     =           0.0000                 GW ET     =           0.0000
     SURFACE LEAKAGE     =           0.0000       SURFACE LEAKAGE     =           0.0000
           AG WELLS      =           0.0000             AG WELLS      =           0.0000

                TOTAL IN =  1740871168.0000                  TOTAL IN =          20.9973

          OUT:                                     OUT:
          ----                                     ----
             STORAGE     =   440555168.0000               STORAGE     =          11.0171
       CONSTANT HEAD     =           0.0000         CONSTANT HEAD     =           0.0000
     HEAD DEP BOUNDS     =    16682992.0000       HEAD DEP BOUNDS     =           0.2870
      STREAM LEAKAGE     =   586010240.0000        STREAM LEAKAGE     =           9.6932
        UZF RECHARGE     =           0.0000          UZF RECHARGE     =           0.0000
               GW ET     =           0.0000                 GW ET     =           0.0000
     SURFACE LEAKAGE     =           0.0000       SURFACE LEAKAGE     =           0.0000
           AG WELLS      =   697628416.0000             AG WELLS      =           0.0000

               TOTAL OUT =  1740876800.0000                 TOTAL OUT =          20.9973

                IN - OUT =       -5632.0000                  IN - OUT =       1.1444E-05

     PERCENT DISCREPANCY =          -0.00         PERCENT DISCREPANCY =           0.00






         TIME SUMMARY AT END OF TIME STEP   30 IN STRESS PERIOD   23
                    SECONDS     MINUTES      HOURS       DAYS        YEARS
                    -----------------------------------------------------------
   TIME STEP LENGTH  87667.      1461.1      24.352      1.0147     2.77799E-03
 STRESS PERIOD TIME 2.63000E+06  43833.      730.56      30.440     8.33397E-02
         TOTAL TIME 5.79467E+07 9.65778E+05  16096.      670.68      1.8362    
1
1
                            STRESS PERIOD NO.   24, LENGTH =   2630000.    
                            -----------------------------------------------

                              NUMBER OF TIME STEPS =    30

                               MULTIPLIER FOR DELT =     1.000

                            INITIAL TIME STEP SIZE =   87666.66    

 REUSING NON-PARAMETER GHB CELLS FROM LAST STRESS PERIOD

      2 GHB CELLS

 REUSING STREAM SEGMENT DATA FROM LAST STRESS PERIOD



            AREAL INFILTRATION RATE
 READING ON UNIT   19 WITH FORMAT: (FREE)              

            1           2           3           4           5           6           7           8           9          10
 ........................................................................................................................
   1   1.0000E-10  2.0000E-10   0.000       0.000       0.000       0.000       0.000       0.000       0.000       0.000    
   2   2.0000E-10  1.0000E-10  2.0000E-10   0.000       0.000      8.0000E-10  8.0000E-10  5.0000E-10   0.000       0.000    
   3    0.000      5.0000E-10  1.0000E-10  1.0000E-10  8.0000E-10  8.0000E-10  5.0000E-10  5.0000E-10   0.000       0.000    
   4   8.0000E-10  5.0000E-10  1.0000E-10  1.0000E-10  1.0000E-10  1.0000E-10  1.0000E-10  1.0000E-10  2.0000E-10   0.000    
   5   8.0000E-10  5.0000E-10  1.0000E-10  1.0000E-10  1.0000E-10  1.0000E-10  1.0000E-10  1.0000E-10  1.0000E-10  1.0000E-10
   6   8.0000E-10  5.0000E-10  5.0000E-10  2.0000E-10  2.0000E-10  1.0000E-10  1.0000E-10  1.0000E-10  1.0000E-10  5.0000E-10
   7   8.0000E-10  5.0000E-10  5.0000E-10  2.0000E-10  2.0000E-10  1.0000E-10  1.0000E-10  2.0000E-10  2.0000E-10   0.000    
   8    0.000      5.0000E-10  5.0000E-10  2.0000E-10  2.0000E-10  1.0000E-10  1.0000E-10  2.0000E-10  5.0000E-10   0.000    
   9    0.000      5.0000E-10  5.0000E-10  2.0000E-10  2.0000E-10  1.0000E-10  1.0000E-10  2.0000E-10  5.0000E-10   0.000    
  10    0.000      5.0000E-10  5.0000E-10  2.0000E-10  2.0000E-10  1.0000E-10  1.0000E-10  2.0000E-10  5.0000E-10  8.0000E-10
  11    0.000      1.0000E-10  1.0000E-10  1.0000E-10  1.0000E-10  1.0000E-10  1.0000E-10  2.0000E-10  5.0000E-10   0.000    
  12   1.0000E-10  1.0000E-10  1.0000E-10  1.0000E-10  1.0000E-10  1.0000E-10  1.0000E-10  1.0000E-10  2.0000E-10   0.000    
  13   1.0000E-10  1.0000E-10  2.0000E-10  2.0000E-10  2.0000E-10  2.0000E-10  2.0000E-10  1.0000E-10  1.0000E-10   0.000    
  14    0.000      2.0000E-10  5.0000E-10  5.0000E-10  5.0000E-10  5.0000E-10  5.0000E-10  2.0000E-10  1.0000E-10   0.000    
  15    0.000       0.000      8.0000E-10  8.0000E-10  8.0000E-10  8.0000E-10   0.000       0.000       0.000       0.000    

                  ET RATE =  5.000000E-10

 USING ET EXTINCTION DEPTH FROM PREVIOUS STRESS PERIOD. CURRENT PERIOD IS:      24

 USING EXTINCTION WATER CONTENT FROM PREVIOUS STRESS PERIOD. CURRENT PERIOD IS:      24

 USING AIR ENTRY PRESSURE FROM PREVIOUS STRESS PERIOD. CURRENT PERIOD IS:      24

 USING ROOT PRESSURE HEAD FROM PREVIOUS STRESS PERIOD. CURRENT PERIOD IS:      24

 USING ROOT ACTIVITY FROM PREVIOUS STRESS PERIOD. CURRENT PERIOD IS:      24

 PROCESSING AG STRESS PERIOD DATA

 READING AG STRESS PERIOD DATA

 READING IRRIGATION SEGMENT

 READING IRRIGATION WELL

 READING SUPPLEMENTAL WELL

 NO IRRPOND OR REUSING IRRPOND DATA FROM LAST STRESS PERIOD

 END PROCESSING AG STRESS PERIOD DATA OPTIONS
 
 SOLVING FOR HEAD 
                                                   Max.-Head-Change                         Max.-Flux-Residual
  Residual-Control   Outer-Iter.   Inner-Iter.     Column Row Layer    Maximum-Head-Change  Column Row Layer    Maximum-Flux-Residual          L2-NORM 
          0                 1           2             4    7     1       0.3813883651E-01       4    7    1         0.2009189108E+01      0.4083135341E+01
          0                 2           2             4    7     1      -0.3709898298E-02       4    7    1        -0.2009209147E+00      0.4083145766E+00
          0                 3           2             4    7     1       0.2526300320E-03       4    7    1         0.1406445113E-01      0.2858200812E-01
          0                 4           1             4    7     1      -0.1005238646E-04       4    7    1        -0.5752369334E-03      0.1169004776E-02

    ------------------------------------------------
       NWT REQUIRED            4 OUTER ITERATIONS 
       AND A TOTAL OF          7 INNER ITERATIONS.
    ------------------------------------------------

 NO OUTPUT CONTROL FOR STRESS PERIOD   24   TIME STEP    1
 
 SOLVING FOR HEAD 
                                                   Max.-Head-Change                         Max.-Flux-Residual
  Residual-Control   Outer-Iter.   Inner-Iter.     Column Row Layer    Maximum-Head-Change  Column Row Layer    Maximum-Flux-Residual          L2-NORM 
          0                 1           2             4    7     1       0.3761536436E-01       4    7    1         0.1981606386E+01      0.4029325626E+01
          0                 2           2             4    7     1      -0.3658978085E-02       4    7    1        -0.1981625983E+00      0.4029333562E+00
          0                 3           2             4    7     1       0.2491625607E-03       4    7    1         0.1387136933E-01      0.2820530376E-01
          0                 4           1             4    7     1      -0.9914412707E-05       4    7    1        -0.5673398846E-03      0.1153597650E-02

    ------------------------------------------------
       NWT REQUIRED            4 OUTER ITERATIONS 
       AND A TOTAL OF          7 INNER ITERATIONS.
    ------------------------------------------------

 NO OUTPUT CONTROL FOR STRESS PERIOD   24   TIME STEP    2
 
 SOLVING FOR HEAD 
                                                   Max.-Head-Change                         Max.-Flux-Residual
  Residual-Control   Outer-Iter.   Inner-Iter.     Column Row Layer    Maximum-Head-Change  Column Row Layer    Maximum-Flux-Residual          L2-NORM 
          0                 1           2             4    7     1       0.3709930741E-01       4    7    1         0.1954406837E+01      0.3976249565E+01
          0                 2           2             4    7     1      -0.3608779172E-02       4    7    1        -0.1954425995E+00      0.3976257322E+00
          0                 3           2             4    7     1       0.2457442070E-03       4    7    1         0.1368096975E-01      0.2783376660E-01
          0                 4           1             4    7     1      -0.9778393131E-05       4    7    1        -0.5595525149E-03      0.1138395799E-02

    ------------------------------------------------
       NWT REQUIRED            4 OUTER ITERATIONS 
       AND A TOTAL OF          7 INNER ITERATIONS.
    ------------------------------------------------

 NO OUTPUT CONTROL FOR STRESS PERIOD   24   TIME STEP    3
 
 SOLVING FOR HEAD 
                                                   Max.-Head-Change                         Max.-Flux-Residual
  Residual-Control   Outer-Iter.   Inner-Iter.     Column Row Layer    Maximum-Head-Change  Column Row Layer    Maximum-Flux-Residual          L2-NORM 
          0                 1           2             4    7     1       0.3659080654E-01       4    7    1         0.1927599028E+01      0.3924368381E+01
          0                 2           2             4    7     1      -0.3559315266E-02       4    7    1        -0.1927617753E+00      0.3924375987E+00
          0                 3           2             4    7     1       0.2423759049E-03       4    7    1         0.1349331237E-01      0.2747059824E-01
          0                 4           1             4    7     1      -0.9644365493E-05       4    7    1        -0.5518773428E-03      0.1123548322E-02

    ------------------------------------------------
       NWT REQUIRED            4 OUTER ITERATIONS 
       AND A TOTAL OF          7 INNER ITERATIONS.
    ------------------------------------------------

 NO OUTPUT CONTROL FOR STRESS PERIOD   24   TIME STEP    4
 
 SOLVING FOR HEAD 
                                                   Max.-Head-Change                         Max.-Flux-Residual
  Residual-Control   Outer-Iter.   Inner-Iter.     Column Row Layer    Maximum-Head-Change  Column Row Layer    Maximum-Flux-Residual          L2-NORM 
          0                 1           2             4    7     1       0.3608971989E-01       4    7    1         0.1901175701E+01      0.3873653403E+01
          0                 2           2             4    7     1      -0.3510572570E-02       4    7    1        -0.1901193996E+00      0.3873660870E+00
          0                 3           2             4    7     1       0.2390567138E-03       4    7    1         0.1330834640E-01      0.2711559766E-01
          0                 4           1             4    7     1      -0.9512291340E-05       4    7    1        -0.5443121963E-03      0.1109027062E-02

    ------------------------------------------------
       NWT REQUIRED            4 OUTER ITERATIONS 
       AND A TOTAL OF          7 INNER ITERATIONS.
    ------------------------------------------------

 NO OUTPUT CONTROL FOR STRESS PERIOD   24   TIME STEP    5
 
 SOLVING FOR HEAD 
                                                   Max.-Head-Change                         Max.-Flux-Residual
  Residual-Control   Outer-Iter.   Inner-Iter.     Column Row Layer    Maximum-Head-Change  Column Row Layer    Maximum-Flux-Residual          L2-NORM 
          0                 1           2             4    7     1       0.3559603624E-01       4    7    1         0.1875136782E+01      0.3824058381E+01
          0                 2           2             4    7     1      -0.3462549970E-02       4    7    1        -0.1875154652E+00      0.3823944975E+00
          0                 3           2             4    7     1       0.2357865590E-03       4    7    1         0.1312607132E-01      0.2676809021E-01
          0                 4           1             4    7     1      -0.9382169176E-05       4    7    1        -0.5368571410E-03      0.1102244156E-02

    ------------------------------------------------
       NWT REQUIRED            4 OUTER ITERATIONS 
       AND A TOTAL OF          7 INNER ITERATIONS.
    ------------------------------------------------

 NO OUTPUT CONTROL FOR STRESS PERIOD   24   TIME STEP    6
 
 SOLVING FOR HEAD 
                                                   Max.-Head-Change                         Max.-Flux-Residual
  Residual-Control   Outer-Iter.   Inner-Iter.     Column Row Layer    Maximum-Head-Change  Column Row Layer    Maximum-Flux-Residual          L2-NORM 
          0                 1           2             4    7     1       0.3510986384E-01       4    7    1         0.1849488975E+01      0.3775552331E+01
          0                 2           2             4    7     1      -0.3415258058E-02       4    7    1        -0.1849506427E+00      0.3775559433E+00
          0                 3           2             4    7     1       0.2325661614E-03       4    7    1         0.1294653407E-01      0.2642888919E-01
          0                 4           1             4    7     1      -0.9254026515E-05       4    7    1        -0.5295140636E-03      0.1080947621E-02

    ------------------------------------------------
       NWT REQUIRED            4 OUTER ITERATIONS 
       AND A TOTAL OF          7 INNER ITERATIONS.
    ------------------------------------------------

 NO OUTPUT CONTROL FOR STRESS PERIOD   24   TIME STEP    7
 
 SOLVING FOR HEAD 
                                                   Max.-Head-Change                         Max.-Flux-Residual
  Residual-Control   Outer-Iter.   Inner-Iter.     Column Row Layer    Maximum-Head-Change  Column Row Layer    Maximum-Flux-Residual          L2-NORM 
          0                 1           2             4    7     1       0.3463116471E-01       4    7    1         0.1824230607E+01      0.3728112908E+01
          0                 2           2             4    7     1      -0.3368693080E-02       4    7    1        -0.1824247646E+00      0.3728119740E+00
          0                 3           2             4    7     1       0.2293952649E-03       4    7    1         0.1276972293E-01      0.2609680682E-01
          0                 4           1             4    7     1      -0.9127853112E-05       4    7    1        -0.5222824570E-03      0.1067358441E-02

    ------------------------------------------------
       NWT REQUIRED            4 OUTER ITERATIONS 
       AND A TOTAL OF          7 INNER ITERATIONS.
    ------------------------------------------------

 NO OUTPUT CONTROL FOR STRESS PERIOD   24   TIME STEP    8
 
 SOLVING FOR HEAD 
                                                   Max.-Head-Change                         Max.-Flux-Residual
  Residual-Control   Outer-Iter.   Inner-Iter.     Column Row Layer    Maximum-Head-Change  Column Row Layer    Maximum-Flux-Residual          L2-NORM 
          0                 1           2             4    7     1       0.3415989558E-01       4    7    1         0.1799359711E+01      0.3681699649E+01
          0                 2           2             4    7     1      -0.3322850848E-02       4    7    1        -0.1799376344E+00      0.3681704399E+00
          0                 3           2             4    7     1       0.2262735849E-03       4    7    1         0.1259562412E-01      0.2577176057E-01
          0                 4           1             4    7     1      -0.9003638951E-05       4    7    1        -0.5151618302E-03      0.1054082301E-02

    ------------------------------------------------
       NWT REQUIRED            4 OUTER ITERATIONS 
       AND A TOTAL OF          7 INNER ITERATIONS.
    ------------------------------------------------

 NO OUTPUT CONTROL FOR STRESS PERIOD   24   TIME STEP    9
 
 SOLVING FOR HEAD 
                                                   Max.-Head-Change                         Max.-Flux-Residual
  Residual-Control   Outer-Iter.   Inner-Iter.     Column Row Layer    Maximum-Head-Change  Column Row Layer    Maximum-Flux-Residual          L2-NORM 
          0                 1           2             4    7     1       0.3369600066E-01       4    7    1         0.1774874044E+01      0.3636264213E+01
          0                 2           2             4    7     1      -0.3277725936E-02       4    7    1        -0.1774890278E+00      0.3636270540E+00
          0                 3           2             4    7     1       0.2232007512E-03       4    7    1         0.1242422196E-01      0.2545385794E-01
          0                 4           1             4    7     1      -0.8881367798E-05       4    7    1        -0.5081514546E-03      0.1041072186E-02

    ------------------------------------------------
       NWT REQUIRED            4 OUTER ITERATIONS 
       AND A TOTAL OF          7 INNER ITERATIONS.
    ------------------------------------------------

 NO OUTPUT CONTROL FOR STRESS PERIOD   24   TIME STEP   10
 
 SOLVING FOR HEAD 
                                                   Max.-Head-Change                         Max.-Flux-Residual
  Residual-Control   Outer-Iter.   Inner-Iter.     Column Row Layer    Maximum-Head-Change  Column Row Layer    Maximum-Flux-Residual          L2-NORM 
          0                 1           2             4    7     1       0.3323942085E-01       4    7    1         0.1750770712E+01      0.3591786303E+01
          0                 2           2             4    7     1      -0.3233312595E-02       4    7    1        -0.1750786554E+00      0.3591792431E+00
          0                 3           2             4    7     1       0.2201763730E-03       4    7    1         0.1225549618E-01      0.2514251342E-01
          0                 4           1             4    7     1      -0.8761025032E-05       4    7    1        -0.5012505667E-03      0.1028329777E-02

    ------------------------------------------------
       NWT REQUIRED            4 OUTER ITERATIONS 
       AND A TOTAL OF          7 INNER ITERATIONS.
    ------------------------------------------------

 NO OUTPUT CONTROL FOR STRESS PERIOD   24   TIME STEP   11
 
 SOLVING FOR HEAD 
                                                   Max.-Head-Change                         Max.-Flux-Residual
  Residual-Control   Outer-Iter.   Inner-Iter.     Column Row Layer    Maximum-Head-Change  Column Row Layer    Maximum-Flux-Residual          L2-NORM 
          0                 1           2             4    7     1       0.3279009046E-01       4    7    1         0.1727046653E+01      0.3548238495E+01
          0                 2           2             4    7     1      -0.3189604434E-02       4    7    1        -0.1727062109E+00      0.3548244267E+00
          0                 3           2             4    7     1       0.2172000150E-03       4    7    1         0.1208942538E-01      0.2483767455E-01
          0                 4           1             4    7     1      -0.8642593040E-05       4    7    1        -0.4944582652E-03      0.1015861993E-02

    ------------------------------------------------
       NWT REQUIRED            4 OUTER ITERATIONS 
       AND A TOTAL OF          7 INNER ITERATIONS.
    ------------------------------------------------

 NO OUTPUT CONTROL FOR STRESS PERIOD   24   TIME STEP   12
 
 SOLVING FOR HEAD 
                                                   Max.-Head-Change                         Max.-Flux-Residual
  Residual-Control   Outer-Iter.   Inner-Iter.     Column Row Layer    Maximum-Head-Change  Column Row Layer    Maximum-Flux-Residual          L2-NORM 
          0                 1           2             4    7     1       0.3234793819E-01       4    7    1         0.1703698459E+01      0.3505582089E+01
          0                 2           2             4    7     1      -0.3146594520E-02       4    7    1        -0.1703713537E+00      0.3505587765E+00
          0                 3           2             4    7     1       0.2142712044E-03       4    7    1         0.1192598565E-01      0.2453908047E-01
          0                 4           1             4    7     1      -0.8526052593E-05       4    7    1        -0.4877735587E-03      0.1003646815E-02

    ------------------------------------------------
       NWT REQUIRED            4 OUTER ITERATIONS 
       AND A TOTAL OF          7 INNER ITERATIONS.
    ------------------------------------------------

 NO OUTPUT CONTROL FOR STRESS PERIOD   24   TIME STEP   13
 
 SOLVING FOR HEAD 
                                                   Max.-Head-Change                         Max.-Flux-Residual
  Residual-Control   Outer-Iter.   Inner-Iter.     Column Row Layer    Maximum-Head-Change  Column Row Layer    Maximum-Flux-Residual          L2-NORM 
          0                 1           2             4    7     1       0.3191302503E-01       4    7    1         0.1680729723E+01      0.3463807724E+01
          0                 2           2             4    7     1      -0.3104288776E-02       4    7    1        -0.1680744430E+00      0.3463740956E+00
          0                 3           2             4    7     1       0.2113903452E-03       4    7    1         0.1176520217E-01      0.2424615414E-01
          0                 4           1             4    7     1      -0.8411420617E-05       4    7    1        -0.4811975059E-03      0.9916677596E-03

    ------------------------------------------------
       NWT REQUIRED            4 OUTER ITERATIONS 
       AND A TOTAL OF          7 INNER ITERATIONS.
    ------------------------------------------------

 NO OUTPUT CONTROL FOR STRESS PERIOD   24   TIME STEP   14
 
 SOLVING FOR HEAD 
                                                   Max.-Head-Change                         Max.-Flux-Residual
  Residual-Control   Outer-Iter.   Inner-Iter.     Column Row Layer    Maximum-Head-Change  Column Row Layer    Maximum-Flux-Residual          L2-NORM 
          0                 1           2             4    7     1       0.3148512733E-01       4    7    1         0.1658129031E+01      0.3422880901E+01
          0                 2           2             4    7     1      -0.3062665473E-02       4    7    1        -0.1658143376E+00      0.3422886227E+00
          0                 3           2             4    7     1       0.2085559577E-03       4    7    1         0.1160699506E-01      0.2396017148E-01
          0                 4           1             4    7     1      -0.8298637821E-05       4    7    1        -0.4747268231E-03      0.9799687091E-03

    ------------------------------------------------
       NWT REQUIRED            4 OUTER ITERATIONS 
       AND A TOTAL OF          7 INNER ITERATIONS.
    ------------------------------------------------

 NO OUTPUT CONTROL FOR STRESS PERIOD   24   TIME STEP   15
 
 SOLVING FOR HEAD 
                                                   Max.-Head-Change                         Max.-Flux-Residual
  Residual-Control   Outer-Iter.   Inner-Iter.     Column Row Layer    Maximum-Head-Change  Column Row Layer    Maximum-Flux-Residual          L2-NORM 
          0                 1           2             4    7     1       0.3106429695E-01       4    7    1         0.1635899364E+01      0.3382789559E+01
          0                 2           2             4    7     1      -0.3021729631E-02       4    7    1        -0.1635913353E+00      0.3382794686E+00
          0                 3           2             4    7     1       0.2057683841E-03       4    7    1         0.1145138518E-01      0.2367954532E-01
          0                 4           1             4    7     1      -0.8187717789E-05       4    7    1        -0.4683623765E-03      0.9685103326E-03

    ------------------------------------------------
       NWT REQUIRED            4 OUTER ITERATIONS 
       AND A TOTAL OF          7 INNER ITERATIONS.
    ------------------------------------------------

 NO OUTPUT CONTROL FOR STRESS PERIOD   24   TIME STEP   16
 
 SOLVING FOR HEAD 
                                                   Max.-Head-Change                         Max.-Flux-Residual
  Residual-Control   Outer-Iter.   Inner-Iter.     Column Row Layer    Maximum-Head-Change  Column Row Layer    Maximum-Flux-Residual          L2-NORM 
          0                 1           2             4    7     1       0.3065044606E-01       4    7    1         0.1614036122E+01      0.3343500525E+01
          0                 2           2             4    7     1      -0.2981472713E-02       4    7    1        -0.1614049764E+00      0.3343505420E+00
          0                 3           2             4    7     1       0.2030270422E-03       4    7    1         0.1129834033E-01      0.2340450345E-01
          0                 4           1             4    7     1      -0.8078636920E-05       4    7    1        -0.4621028170E-03      0.9572425686E-03

    ------------------------------------------------
       NWT REQUIRED            4 OUTER ITERATIONS 
       AND A TOTAL OF          7 INNER ITERATIONS.
    ------------------------------------------------

 NO OUTPUT CONTROL FOR STRESS PERIOD   24   TIME STEP   17
 
 SOLVING FOR HEAD 
                                                   Max.-Head-Change                         Max.-Flux-Residual
  Residual-Control   Outer-Iter.   Inner-Iter.     Column Row Layer    Maximum-Head-Change  Column Row Layer    Maximum-Flux-Residual          L2-NORM 
          0                 1           2             4    7     1       0.3024347512E-01       4    7    1         0.1592534753E+01      0.3304989159E+01
          0                 2           2             4    7     1      -0.2941885039E-02       4    7    1        -0.1592548055E+00      0.3304993754E+00
          0                 3           2             4    7     1       0.2003312733E-03       4    7    1         0.1114782862E-01      0.2313492464E-01
          0                 4           1             4    7     1      -0.7971369887E-05       4    7    1        -0.4559468894E-03      0.9462179356E-03

    ------------------------------------------------
       NWT REQUIRED            4 OUTER ITERATIONS 
       AND A TOTAL OF          7 INNER ITERATIONS.
    ------------------------------------------------

 NO OUTPUT CONTROL FOR STRESS PERIOD   24   TIME STEP   18
 
 SOLVING FOR HEAD 
                                                   Max.-Head-Change                         Max.-Flux-Residual
  Residual-Control   Outer-Iter.   Inner-Iter.     Column Row Layer    Maximum-Head-Change  Column Row Layer    Maximum-Flux-Residual          L2-NORM 
          0                 1           2             4    7     1       0.2984315596E-01       4    7    1         0.1571382805E+01      0.3267225641E+01
          0                 2           2             4    7     1      -0.2902944412E-02       4    7    1        -0.1571395774E+00      0.3267229938E+00
          0                 3           2             4    7     1       0.1976795655E-03       4    7    1         0.1099976290E-01      0.2287057622E-01
          0                 4           1             4    7     1      -0.7865855557E-05       4    7    1        -0.4498909702E-03      0.9354072232E-03

    ------------------------------------------------
       NWT REQUIRED            4 OUTER ITERATIONS 
       AND A TOTAL OF          7 INNER ITERATIONS.
    ------------------------------------------------

 NO OUTPUT CONTROL FOR STRESS PERIOD   24   TIME STEP   19
 
 SOLVING FOR HEAD 
                                                   Max.-Head-Change                         Max.-Flux-Residual
  Residual-Control   Outer-Iter.   Inner-Iter.     Column Row Layer    Maximum-Head-Change  Column Row Layer    Maximum-Flux-Residual          L2-NORM 
          0                 1           2             4    7     1       0.2944966216E-01       4    7    1         0.1550590319E+01      0.3230202369E+01
          0                 2           2             4    7     1      -0.2864667719E-02       4    7    1        -0.1550602964E+00      0.3230206506E+00
          0                 3           2             4    7     1       0.1950730693E-03       4    7    1         0.1085421348E-01      0.2261141021E-01
          0                 4           1             4    7     1      -0.7762140670E-05       4    7    1        -0.4439380014E-03      0.9248058443E-03

    ------------------------------------------------
       NWT REQUIRED            4 OUTER ITERATIONS 
       AND A TOTAL OF          7 INNER ITERATIONS.
    ------------------------------------------------

 NO OUTPUT CONTROL FOR STRESS PERIOD   24   TIME STEP   20
 
 SOLVING FOR HEAD 
                                                   Max.-Head-Change                         Max.-Flux-Residual
  Residual-Control   Outer-Iter.   Inner-Iter.     Column Row Layer    Maximum-Head-Change  Column Row Layer    Maximum-Flux-Residual          L2-NORM 
          0                 1           2             4    7     1       0.2906262227E-01       4    7    1         0.1530137132E+01      0.3193894687E+01
          0                 2           2             4    7     1      -0.2827018825E-02       4    7    1        -0.1530149459E+00      0.3193898583E+00
          0                 3           2             4    7     1       0.1925093239E-03       4    7    1         0.1071103918E-01      0.2235726146E-01
          0                 4           1             4    7     1      -0.7660127140E-05       4    7    1        -0.4380821683E-03      0.9144099001E-03

    ------------------------------------------------
       NWT REQUIRED            4 OUTER ITERATIONS 
       AND A TOTAL OF          7 INNER ITERATIONS.
    ------------------------------------------------

 NO OUTPUT CONTROL FOR STRESS PERIOD   24   TIME STEP   21
 
 SOLVING FOR HEAD 
                                                   Max.-Head-Change                         Max.-Flux-Residual
  Residual-Control   Outer-Iter.   Inner-Iter.     Column Row Layer    Maximum-Head-Change  Column Row Layer    Maximum-Flux-Residual          L2-NORM 
          0                 1           2             4    7     1       0.2868220552E-01       4    7    1         0.1510033150E+01      0.3158279492E+01
          0                 2           2             4    7     1      -0.2790014193E-02       4    7    1        -0.1510045168E+00      0.3158283061E+00
          0                 3           2             4    7     1       0.1899894499E-03       4    7    1         0.1057030937E-01      0.2210794151E-01
          0                 4           1             4    7     1      -0.7559858944E-05       4    7    1        -0.4323263047E-03      0.9042133082E-03

    ------------------------------------------------
       NWT REQUIRED            4 OUTER ITERATIONS 
       AND A TOTAL OF          7 INNER ITERATIONS.
    ------------------------------------------------

 NO OUTPUT CONTROL FOR STRESS PERIOD   24   TIME STEP   22
 
 SOLVING FOR HEAD 
                                                   Max.-Head-Change                         Max.-Flux-Residual
  Residual-Control   Outer-Iter.   Inner-Iter.     Column Row Layer    Maximum-Head-Change  Column Row Layer    Maximum-Flux-Residual          L2-NORM 
          0                 1           2             4    7     1       0.2830817134E-01       4    7    1         0.1490265273E+01      0.3123341745E+01
          0                 2           2             4    7     1      -0.2753630422E-02       4    7    1        -0.1490276988E+00      0.3123345068E+00
          0                 3           2             4    7     1       0.1875118545E-03       4    7    1         0.1043193234E-01      0.2186337349E-01
          0                 4           1             4    7     1      -0.7461272992E-05       4    7    1        -0.4266666806E-03      0.8942116910E-03

    ------------------------------------------------
       NWT REQUIRED            4 OUTER ITERATIONS 
       AND A TOTAL OF          7 INNER ITERATIONS.
    ------------------------------------------------

 NO OUTPUT CONTROL FOR STRESS PERIOD   24   TIME STEP   23
 
 SOLVING FOR HEAD 
                                                   Max.-Head-Change                         Max.-Flux-Residual
  Residual-Control   Outer-Iter.   Inner-Iter.     Column Row Layer    Maximum-Head-Change  Column Row Layer    Maximum-Flux-Residual          L2-NORM 
          0                 1           2             4    7     1       0.2794055147E-01       4    7    1         0.1470835612E+01      0.3089069215E+01
          0                 2           2             4    7     1      -0.2717870600E-02       4    7    1        -0.1470847032E+00      0.3089072324E+00
          0                 3           2             4    7     1       0.1850767472E-03       4    7    1         0.1029592285E-01      0.2162346895E-01
          0                 4           1             4    7     1      -0.7364377689E-05       4    7    1        -0.4211038890E-03      0.8844036888E-03

    ------------------------------------------------
       NWT REQUIRED            4 OUTER ITERATIONS 
       AND A TOTAL OF          7 INNER ITERATIONS.
    ------------------------------------------------

 NO OUTPUT CONTROL FOR STRESS PERIOD   24   TIME STEP   24
 
 SOLVING FOR HEAD 
                                                   Max.-Head-Change                         Max.-Flux-Residual
  Residual-Control   Outer-Iter.   Inner-Iter.     Column Row Layer    Maximum-Head-Change  Column Row Layer    Maximum-Flux-Residual          L2-NORM 
          0                 1           2             4    7     1       0.2757910184E-01       4    7    1         0.1451731228E+01      0.3055430098E+01
          0                 2           2             4    7     1      -0.2682710985E-02       4    7    1        -0.1451742360E+00      0.3055432982E+00
          0                 3           2             4    7     1       0.1826825119E-03       4    7    1         0.1016219038E-01      0.2138799220E-01
          0                 4           1             4    7     1      -0.7269108909E-05       4    7    1        -0.4156342070E-03      0.8747703741E-03

    ------------------------------------------------
       NWT REQUIRED            4 OUTER ITERATIONS 
       AND A TOTAL OF          7 INNER ITERATIONS.
    ------------------------------------------------

 NO OUTPUT CONTROL FOR STRESS PERIOD   24   TIME STEP   25
 
 SOLVING FOR HEAD 
                                                   Max.-Head-Change                         Max.-Flux-Residual
  Residual-Control   Outer-Iter.   Inner-Iter.     Column Row Layer    Maximum-Head-Change  Column Row Layer    Maximum-Flux-Residual          L2-NORM 
          0                 1           2             4    7     1       0.2722385324E-01       4    7    1         0.1432954052E+01      0.3022418859E+01
          0                 2           2             4    7     1      -0.2648154571E-02       4    7    1        -0.1432964904E+00      0.3022421564E+00
          0                 3           2             4    7     1       0.1803293524E-03       4    7    1         0.1003074840E-01      0.2115691427E-01
          0                 4           1             4    7     1      -0.7175474250E-05       4    7    1        -0.4102582166E-03      0.8653202680E-03

    ------------------------------------------------
       NWT REQUIRED            4 OUTER ITERATIONS 
       AND A TOTAL OF          7 INNER ITERATIONS.
    ------------------------------------------------

 NO OUTPUT CONTROL FOR STRESS PERIOD   24   TIME STEP   26
 
 SOLVING FOR HEAD 
                                                   Max.-Head-Change                         Max.-Flux-Residual
  Residual-Control   Outer-Iter.   Inner-Iter.     Column Row Layer    Maximum-Head-Change  Column Row Layer    Maximum-Flux-Residual          L2-NORM 
          0                 1           2             4    7     1       0.2687456166E-01       4    7    1         0.1414491094E+01      0.2990015731E+01
          0                 2           2             4    7     1      -0.2614177621E-02       4    7    1        -0.1414501672E+00      0.2990018164E+00
          0                 3           2             4    7     1       0.1780156520E-03       4    7    1         0.9901505959E-02      0.2093008510E-01
          0                 4           1             4    7     1      -0.7083410277E-05       4    7    1        -0.4049722093E-03      0.8560395045E-03

    ------------------------------------------------
       NWT REQUIRED            4 OUTER ITERATIONS 
       AND A TOTAL OF          7 INNER ITERATIONS.
    ------------------------------------------------

 NO OUTPUT CONTROL FOR STRESS PERIOD   24   TIME STEP   27
 
 SOLVING FOR HEAD 
                                                   Max.-Head-Change                         Max.-Flux-Residual
  Residual-Control   Outer-Iter.   Inner-Iter.     Column Row Layer    Maximum-Head-Change  Column Row Layer    Maximum-Flux-Residual          L2-NORM 
          0                 1           2             4    7     1       0.2653139410E-01       4    7    1         0.1396351584E+01      0.2958211385E+01
          0                 2           2             4    7     1      -0.2580796384E-02       4    7    1        -0.1396361895E+00      0.2958213654E+00
          0                 3           2             4    7     1       0.1757425176E-03       4    7    1         0.9774527738E-02      0.2070745345E-01
          0                 4           1             4    7     1      -0.6992960048E-05       4    7    1        -0.3997787967E-03      0.8469345485E-03

    ------------------------------------------------
       NWT REQUIRED            4 OUTER ITERATIONS 
       AND A TOTAL OF          7 INNER ITERATIONS.
    ------------------------------------------------

 NO OUTPUT CONTROL FOR STRESS PERIOD   24   TIME STEP   28
 
 SOLVING FOR HEAD 
                                                   Max.-Head-Change                         Max.-Flux-Residual
  Residual-Control   Outer-Iter.   Inner-Iter.     Column Row Layer    Maximum-Head-Change  Column Row Layer    Maximum-Flux-Residual          L2-NORM 
          0                 1           2             4    7     1       0.2619396481E-01       4    7    1         0.1378515004E+01      0.2926979160E+01
          0                 2           2             4    7     1      -0.2547973333E-02       4    7    1        -0.1378525055E+00      0.2926981171E+00
          0                 3           2             4    7     1       0.1735073931E-03       4    7    1         0.9649670053E-02      0.2048881728E-01
          0                 4           1             4    7     1      -0.6904022250E-05       4    7    1        -0.3946720976E-03      0.8379856588E-03

    ------------------------------------------------
       NWT REQUIRED            4 OUTER ITERATIONS 
       AND A TOTAL OF          7 INNER ITERATIONS.
    ------------------------------------------------

 NO OUTPUT CONTROL FOR STRESS PERIOD   24   TIME STEP   29
 
 SOLVING FOR HEAD 
                                                   Max.-Head-Change                         Max.-Flux-Residual
  Residual-Control   Outer-Iter.   Inner-Iter.     Column Row Layer    Maximum-Head-Change  Column Row Layer    Maximum-Flux-Residual          L2-NORM 
          0                 1           2             4    7     1       0.2586231139E-01       4    7    1         0.1360983237E+01      0.2896315931E+01
          0                 2           2             4    7     1      -0.2515712126E-02       4    7    1        -0.1360993035E+00      0.2896317692E+00
          0                 3           2             4    7     1       0.1713105280E-03       4    7    1         0.9526946089E-02      0.2027418294E-01
          0                 4           1             4    7     1      -0.6816606784E-05       4    7    1        -0.3896526787E-03      0.8292124299E-03

    ------------------------------------------------
       NWT REQUIRED            4 OUTER ITERATIONS 
       AND A TOTAL OF          7 INNER ITERATIONS.
    ------------------------------------------------

 NO OUTPUT CONTROL FOR STRESS PERIOD   24   TIME STEP   30



 STREAM LISTING     PERIOD     24   STEP       30

 LAYER ROW COL. STREAM  RCH.  FLOW INTO     FLOW TO   FLOW OUT OF   OVRLND.     DIRECT     STREAM       STREAM     STREAM     STREAM   STREAMBED  STREAMBED
                SEG.NO.  NO.  STRM. RCH.    AQUIFER    STRM. RCH.    RUNOFF     PRECIP       ET          HEAD       DEPTH      WIDTH   CONDCTNC.   GRADIENT

   1    1    1     1     1    7.8751E+00  1.2805E-01   7.7471E+00  0.000E+00  0.000E+00  0.000E+00  1.09388E+03  8.295E-01  7.430E+00  3.344E-02  1.276E+00
   1    2    2     1     2    7.7471E+00  1.9663E-01   7.5504E+00  0.000E+00  0.000E+00  0.000E+00  1.08888E+03  8.238E-01  7.346E+00  5.142E-02  1.275E+00
   1    3    3     1     3    7.5504E+00  1.6607E-01   7.3844E+00  0.000E+00  0.000E+00  0.000E+00  1.08324E+03  8.173E-01  7.251E+00  4.350E-02  1.272E+00
   1    3    4     1     4    7.3844E+00  1.5159E-01   7.2328E+00  0.000E+00  0.000E+00  0.000E+00  1.07822E+03  8.115E-01  7.166E+00  3.977E-02  1.270E+00
   1    4    5     2     1    5.2328E+00  2.7028E-01   4.9625E+00  0.000E+00  0.000E+00  0.000E+00  1.07240E+03  4.651E-01  1.200E+01  7.800E-02  1.155E+00
   1    5    6     2     2    4.9625E+00  2.0712E-01   4.7554E+00  0.000E+00  0.000E+00  0.000E+00  1.06696E+03  4.519E-01  1.200E+01  6.000E-02  1.151E+00
   1    6    6     2     3    4.7554E+00  2.0642E-01   4.5490E+00  0.000E+00  0.000E+00  0.000E+00  1.06223E+03  4.403E-01  1.200E+01  6.000E-02  1.147E+00
   1    7    6     2     4    4.5490E+00  2.0571E-01   4.3433E+00  0.000E+00  0.000E+00  0.000E+00  1.05750E+03  4.285E-01  1.200E+01  6.000E-02  1.143E+00
   1    8    6     2     5    4.3433E+00  2.0499E-01   4.1383E+00  0.000E+00  0.000E+00  0.000E+00  1.05278E+03  4.165E-01  1.200E+01  6.000E-02  1.139E+00
   1    3    5     3     1    2.0000E+00  2.8252E-01   1.7175E+00  0.000E+00  0.000E+00  0.000E+00  1.07555E+03  1.909E+00  9.636E+00  7.227E-02  1.955E+00
   1    3    6     3     2    1.7175E+00  2.4905E-01   1.4684E+00  0.000E+00  0.000E+00  0.000E+00  1.07264E+03  1.727E+00  8.909E+00  6.682E-02  1.864E+00
   1    3    7     3     3    1.4684E+00  1.9718E-01   1.2712E+00  0.000E+00  0.000E+00  0.000E+00  1.06987E+03  1.555E+00  8.218E+00  5.547E-02  1.777E+00
   1    4    8     3     4    1.2712E+00  2.2567E-01   1.0456E+00  0.000E+00  0.000E+00  0.000E+00  1.06682E+03  1.364E+00  7.455E+00  6.709E-02  1.682E+00
   1    5    8     3     5    1.0456E+00  1.5790E-01   8.8768E-01  0.000E+00  0.000E+00  0.000E+00  1.06362E+03  1.164E+00  6.655E+00  4.991E-02  1.582E+00
   1    6    8     3     6    8.8768E-01  5.5980E-02   8.3170E-01  0.000E+00  0.000E+00  0.000E+00  1.06158E+03  1.036E+00  6.145E+00  1.844E-02  1.518E+00
   1    5   10     4     1    1.0000E+01  9.0919E-02   9.9091E+00  0.000E+00  0.000E+00  0.000E+00  1.07836E+03  6.368E-01  1.000E+01  2.500E-02  1.212E+00
   1    5    9     4     2    9.9091E+00  1.8158E-01   9.7275E+00  0.000E+00  0.000E+00  0.000E+00  1.07154E+03  6.315E-01  1.000E+01  5.000E-02  1.211E+00
   1    6    8     4     3    9.7275E+00  1.2689E-01   9.6006E+00  0.000E+00  0.000E+00  0.000E+00  1.06381E+03  6.256E-01  1.000E+01  3.500E-02  1.209E+00
   1    6    8     5     1    1.0432E+01  2.2686E-01   1.0205E+01  0.000E+00  0.000E+00  0.000E+00  1.05868E+03  6.790E-01  1.542E+01  6.166E-02  1.226E+00
   1    7    7     5     2    1.0205E+01  2.7894E-01   9.9265E+00  0.000E+00  0.000E+00  0.000E+00  1.05417E+03  6.732E-01  1.519E+01  7.594E-02  1.224E+00
   1    8    7     5     3    9.9265E+00  1.9221E-01   9.7343E+00  0.000E+00  0.000E+00  0.000E+00  1.04992E+03  6.676E-01  1.497E+01  5.241E-02  1.223E+00
   1    8    6     5     4    9.7343E+00  1.3577E-01   9.5985E+00  0.000E+00  0.000E+00  0.000E+00  1.04691E+03  6.637E-01  1.482E+01  3.706E-02  1.221E+00
   1    9    6     6     1    1.3737E+01  2.3089E-01   1.3506E+01  0.000E+00  0.000E+00  0.000E+00  1.04358E+03  8.482E-01  1.200E+01  6.000E-02  1.283E+00
   1   10    7     6     2    1.3506E+01  2.3037E-01   1.3276E+01  0.000E+00  0.000E+00  0.000E+00  1.03902E+03  8.396E-01  1.200E+01  6.000E-02  1.280E+00
   1   11    7     6     3    1.3276E+01  2.2985E-01   1.3046E+01  0.000E+00  0.000E+00  0.000E+00  1.03447E+03  8.309E-01  1.200E+01  6.000E-02  1.277E+00
   1   12    7     6     4    1.3046E+01  2.2933E-01   1.2816E+01  0.000E+00  0.000E+00  0.000E+00  1.02991E+03  8.221E-01  1.200E+01  6.000E-02  1.274E+00
   1   13    7     6     5    1.2816E+01  2.4494E-03   1.2814E+01  0.000E+00  0.000E+00  0.000E+00  1.02673E+03  8.177E-01  1.200E+01  2.400E-02  3.402E-02
   1   14    9     7     1    1.5000E+02  1.3799E+00   1.4862E+02  0.000E+00  0.000E+00  0.000E+00  1.03987E+03  2.288E+00  5.529E+01  5.593E-01  8.224E-01
   1   13    8     7     2    1.4862E+02  1.9773E+00   1.4664E+02  0.000E+00  0.000E+00  0.000E+00  1.03478E+03  2.279E+00  5.525E+01  6.147E-01  1.072E+00
   1   13    7     7     3    1.4664E+02  1.7105E+00   1.4493E+02  0.000E+00  0.000E+00  0.000E+00  1.02969E+03  2.269E+00  5.521E+01  5.584E-01  1.021E+00
   1   13    6     8     1    1.5775E+02  1.0911E+00   1.5666E+02  0.000E+00  0.000E+00  0.000E+00  1.02474E+03  2.867E+00  4.157E+01  4.236E-01  8.586E-01
   1   13    5     8     2    1.5666E+02  3.4477E-01   1.5631E+02  0.000E+00  0.000E+00  0.000E+00  1.01849E+03  2.862E+00  4.150E+01  4.229E-01  2.718E-01
   1   13    4     8     3    1.5631E+02 -1.8416E+00   1.5815E+02  0.000E+00  0.000E+00  0.000E+00  1.01224E+03  2.867E+00  4.157E+01  4.236E+00 -1.449E-01
   1   13    3     8     4    1.5815E+02 -3.3568E+00   1.6151E+02  0.000E+00  0.000E+00  0.000E+00  1.00601E+03  2.885E+00  4.183E+01  4.262E+00 -2.625E-01
   1   13    2     8     5    1.6151E+02 -2.5080E+00   1.6402E+02  0.000E+00  0.000E+00  0.000E+00  9.99779E+02  2.904E+00  4.211E+01  4.292E+00 -1.948E-01
   1   13    1     8     6    1.6402E+02 -1.9618E+00   1.6598E+02  0.000E+00  0.000E+00  0.000E+00  9.94794E+02  2.919E+00  4.233E+01  2.588E+00 -2.527E-01
   1    8    6     9     1    0.0000E+00  0.0000E+00   0.0000E+00  0.000E+00  0.000E+00  0.000E+00  1.07875E+03  0.000E+00  4.000E+00  0.000E+00  1.000E+00
   1    8    5     9     2    0.0000E+00  0.0000E+00   0.0000E+00  0.000E+00  0.000E+00  0.000E+00  1.07825E+03  0.000E+00  4.000E+00  0.000E+00  1.000E+00





UNSATURATED ZONE PACKAGE VOLUMETRIC BUDGET FOR  TIME STEP    30 STRESS PERIOD   24
  ------------------------------------------------------------------------------



     CUMULATIVE VOLUMES      L**3       RATES FOR THIS TIME STEP      L**3/T
     ------------------                 ------------------------

           IN:                                      IN:
           ---                                      ---
        INFILTRATION =  1112807239.3808          INFILTRATION =           0.8475

          OUT:                                     OUT:
          ----                                     ----
              UZF ET =   860321840.7740                UZF ET =           0.7500
        UZF RECHARGE =       73224.0000          UZF RECHARGE =       0.0000E+00

            IN - OUT =   252412174.6068              IN - OUT =       9.7500E-02

          STORAGE:                                 STORAGE:
          --------                                 --------
      STORAGE CHANGE =   252416413.1128        STORAGE CHANGE =       9.7500E-02

 PERCENT DISCREPANCY IS DIFFERENCE BETWEEN IN-OUT MINUS CHANGE IN STORAGE
 DIVIDED BY THE AVERAGE OF IN AND OUT TIMES 100

 PERCENT DISCREPANCY =          -0.00     PERCENT DISCREPANCY =           0.00






1
  VOLUMETRIC BUDGET FOR AGRICULTURAL FIELDS AT  END OF TIME STEP   30, STRESS PERIOD  24
  ------------------------------------------------------------------------------

     CUMULATIVE VOLUMES      L**3       RATES FOR THIS TIME STEP      L**3/T
     ------------------                 ------------------------

           IN:                                      IN:
           ---                                      ---
               AG WELLS  =   697628416.0000                 AG WELLS  =           0.0000
      DIVERSION SEGMENTS =   363935712.0000        DIVERSION SEGMENTS =           0.0000
       IRRIGATION PONDS  =           0.0000         IRRIGATION PONDS  =           0.0000
           GW IRRIGATION =           0.0000             GW IRRIGATION =           0.0000
           SW IRRIGATION =           0.0000             SW IRRIGATION =           0.0000
        SYSTEM LOSSES GW =           0.0000          SYSTEM LOSSES GW =           0.0000
        SYSTEM LOSSES SW =           0.0000          SYSTEM LOSSES SW =           0.0000

                TOTAL IN =  1061564160.0000                  TOTAL IN =           0.0000

          OUT:                                     OUT:
          ----                                     ----
               AG WELLS  =           0.0000                 AG WELLS  =           0.0000
      DIVERSION SEGMENTS =           0.0000        DIVERSION SEGMENTS =           0.0000
       IRRIGATION PONDS  =           0.0000         IRRIGATION PONDS  =           0.0000
           GW IRRIGATION =   697628416.0000             GW IRRIGATION =           0.0000
           SW IRRIGATION =   363942752.0000             SW IRRIGATION =           0.0000
        SYSTEM LOSSES GW =           0.0000          SYSTEM LOSSES GW =           0.0000
        SYSTEM LOSSES SW =           0.0000          SYSTEM LOSSES SW =           0.0000

               TOTAL OUT =  1061571200.0000                 TOTAL OUT =           0.0000

                IN - OUT =       -7040.0000                  IN - OUT =           0.0000

     PERCENT DISCREPANCY =          -0.00         PERCENT DISCREPANCY =           0.00



1
  VOLUMETRIC BUDGET FOR ENTIRE MODEL AT END OF TIME STEP   30, STRESS PERIOD  24
  ------------------------------------------------------------------------------

     CUMULATIVE VOLUMES      L**3       RATES FOR THIS TIME STEP      L**3/T
     ------------------                 ------------------------

           IN:                                      IN:
           ---                                      ---
             STORAGE     =  1060963264.0000               STORAGE     =           6.9456
       CONSTANT HEAD     =           0.0000         CONSTANT HEAD     =           0.0000
     HEAD DEP BOUNDS     =    17453742.0000       HEAD DEP BOUNDS     =           0.2888
      STREAM LEAKAGE     =   714464448.0000        STREAM LEAKAGE     =          11.5648
        UZF RECHARGE     =       73223.9531          UZF RECHARGE     =           0.0000
               GW ET     =           0.0000                 GW ET     =           0.0000
     SURFACE LEAKAGE     =           0.0000       SURFACE LEAKAGE     =           0.0000
           AG WELLS      =           0.0000             AG WELLS      =           0.0000

                TOTAL IN =  1792954624.0000                  TOTAL IN =          18.7991

          OUT:                                     OUT:
          ----                                     ----
             STORAGE     =   466393024.0000               STORAGE     =           8.8440
       CONSTANT HEAD     =           0.0000         CONSTANT HEAD     =           0.0000
     HEAD DEP BOUNDS     =    17437776.0000       HEAD DEP BOUNDS     =           0.2870
      STREAM LEAKAGE     =   611500992.0000        STREAM LEAKAGE     =           9.6682
        UZF RECHARGE     =           0.0000          UZF RECHARGE     =           0.0000
               GW ET     =           0.0000                 GW ET     =           0.0000
     SURFACE LEAKAGE     =           0.0000       SURFACE LEAKAGE     =           0.0000
           AG WELLS      =   697628416.0000             AG WELLS      =           0.0000

               TOTAL OUT =  1792960256.0000                 TOTAL OUT =          18.7991

                IN - OUT =       -5632.0000                  IN - OUT =       1.1444E-05

     PERCENT DISCREPANCY =          -0.00         PERCENT DISCREPANCY =           0.00






         TIME SUMMARY AT END OF TIME STEP   30 IN STRESS PERIOD   24
                    SECONDS     MINUTES      HOURS       DAYS        YEARS
                    -----------------------------------------------------------
   TIME STEP LENGTH  87667.      1461.1      24.352      1.0147     2.77799E-03
 STRESS PERIOD TIME 2.63000E+06  43833.      730.56      30.440     8.33397E-02
         TOTAL TIME 6.05767E+07 1.00961E+06  16827.      701.12      1.9196    
1
1
                            STRESS PERIOD NO.   25, LENGTH =   2630000.    
                            -----------------------------------------------

                              NUMBER OF TIME STEPS =    30

                               MULTIPLIER FOR DELT =     1.000

                            INITIAL TIME STEP SIZE =   87666.66    

 REUSING NON-PARAMETER GHB CELLS FROM LAST STRESS PERIOD

      2 GHB CELLS

 REUSING STREAM SEGMENT DATA FROM LAST STRESS PERIOD



            AREAL INFILTRATION RATE
 READING ON UNIT   19 WITH FORMAT: (FREE)              

            1           2           3           4           5           6           7           8           9          10
 ........................................................................................................................
   1   1.0000E-10  2.0000E-10   0.000       0.000       0.000       0.000       0.000       0.000       0.000       0.000    
   2   2.0000E-10  1.0000E-10  2.0000E-10   0.000       0.000      8.0000E-10  8.0000E-10  5.0000E-10   0.000       0.000    
   3    0.000      5.0000E-10  1.0000E-10  1.0000E-10  8.0000E-10  8.0000E-10  5.0000E-10  5.0000E-10   0.000       0.000    
   4   8.0000E-10  5.0000E-10  1.0000E-10  1.0000E-10  1.0000E-10  1.0000E-10  1.0000E-10  1.0000E-10  2.0000E-10   0.000    
   5   8.0000E-10  5.0000E-10  1.0000E-10  1.0000E-10  1.0000E-10  1.0000E-10  1.0000E-10  1.0000E-10  1.0000E-10  1.0000E-10
   6   8.0000E-10  5.0000E-10  5.0000E-10  2.0000E-10  2.0000E-10  1.0000E-10  1.0000E-10  1.0000E-10  1.0000E-10  5.0000E-10
   7   8.0000E-10  5.0000E-10  5.0000E-10  2.0000E-10  2.0000E-10  1.0000E-10  1.0000E-10  2.0000E-10  2.0000E-10   0.000    
   8    0.000      5.0000E-10  5.0000E-10  2.0000E-10  2.0000E-10  1.0000E-10  1.0000E-10  2.0000E-10  5.0000E-10   0.000    
   9    0.000      5.0000E-10  5.0000E-10  2.0000E-10  2.0000E-10  1.0000E-10  1.0000E-10  2.0000E-10  5.0000E-10   0.000    
  10    0.000      5.0000E-10  5.0000E-10  2.0000E-10  2.0000E-10  1.0000E-10  1.0000E-10  2.0000E-10  5.0000E-10  8.0000E-10
  11    0.000      1.0000E-10  1.0000E-10  1.0000E-10  1.0000E-10  1.0000E-10  1.0000E-10  2.0000E-10  5.0000E-10   0.000    
  12   1.0000E-10  1.0000E-10  1.0000E-10  1.0000E-10  1.0000E-10  1.0000E-10  1.0000E-10  1.0000E-10  2.0000E-10   0.000    
  13   1.0000E-10  1.0000E-10  2.0000E-10  2.0000E-10  2.0000E-10  2.0000E-10  2.0000E-10  1.0000E-10  1.0000E-10   0.000    
  14    0.000      2.0000E-10  5.0000E-10  5.0000E-10  5.0000E-10  5.0000E-10  5.0000E-10  2.0000E-10  1.0000E-10   0.000    
  15    0.000       0.000      8.0000E-10  8.0000E-10  8.0000E-10  8.0000E-10   0.000       0.000       0.000       0.000    

                  ET RATE =  5.000000E-10

 USING ET EXTINCTION DEPTH FROM PREVIOUS STRESS PERIOD. CURRENT PERIOD IS:      25

 USING EXTINCTION WATER CONTENT FROM PREVIOUS STRESS PERIOD. CURRENT PERIOD IS:      25

 USING AIR ENTRY PRESSURE FROM PREVIOUS STRESS PERIOD. CURRENT PERIOD IS:      25

 USING ROOT PRESSURE HEAD FROM PREVIOUS STRESS PERIOD. CURRENT PERIOD IS:      25

 USING ROOT ACTIVITY FROM PREVIOUS STRESS PERIOD. CURRENT PERIOD IS:      25

 PROCESSING AG STRESS PERIOD DATA

 READING AG STRESS PERIOD DATA

 READING IRRIGATION SEGMENT

 READING IRRIGATION WELL

 READING SUPPLEMENTAL WELL

 NO IRRPOND OR REUSING IRRPOND DATA FROM LAST STRESS PERIOD

 END PROCESSING AG STRESS PERIOD DATA OPTIONS
 
 SOLVING FOR HEAD 
                                                   Max.-Head-Change                         Max.-Flux-Residual
  Residual-Control   Outer-Iter.   Inner-Iter.     Column Row Layer    Maximum-Head-Change  Column Row Layer    Maximum-Flux-Residual          L2-NORM 
          0                 1           2             4    7     1       0.2553631974E-01       4    7    1         0.1343750939E+01      0.2866828310E+01
          0                 2           2             4    7     1      -0.2484001666E-02       4    7    1        -0.1343760490E+00      0.2866824617E+00
          0                 3           2             4    7     1       0.1691511667E-03       4    7    1         0.9406318453E-02      0.2006768083E-01
          0                 4           1             4    7     1      -0.6730684062E-05       4    7    1        -0.3847190005E-03      0.8207555787E-03

    ------------------------------------------------
       NWT REQUIRED            4 OUTER ITERATIONS 
       AND A TOTAL OF          7 INNER ITERATIONS.
    ------------------------------------------------

 NO OUTPUT CONTROL FOR STRESS PERIOD   25   TIME STEP    1
 
 SOLVING FOR HEAD 
                                                   Max.-Head-Change                         Max.-Flux-Residual
  Residual-Control   Outer-Iter.   Inner-Iter.     Column Row Layer    Maximum-Head-Change  Column Row Layer    Maximum-Flux-Residual          L2-NORM 
          0                 1           2             4    7     1       0.2521588446E-01       4    7    1         0.1326812192E+01      0.2837471096E+01
          0                 2           2             4    7     1      -0.2452827865E-02       4    7    1        -0.1326821504E+00      0.2836458153E+00
          0                 3           2             4    7     1       0.1670283500E-03       4    7    1         0.9287745734E-02      0.1985510803E-01
          0                 4           1             4    7     1      -0.6646214827E-05       4    7    1        -0.3798693615E-03      0.8120824799E-03

    ------------------------------------------------
       NWT REQUIRED            4 OUTER ITERATIONS 
       AND A TOTAL OF          7 INNER ITERATIONS.
    ------------------------------------------------

 NO OUTPUT CONTROL FOR STRESS PERIOD   25   TIME STEP    2
 
 SOLVING FOR HEAD 
                                                   Max.-Head-Change                         Max.-Flux-Residual
  Residual-Control   Outer-Iter.   Inner-Iter.     Column Row Layer    Maximum-Head-Change  Column Row Layer    Maximum-Flux-Residual          L2-NORM 
          0                 1           2             4    7     1       0.2490104490E-01       4    7    1         0.1310169035E+01      0.2808484943E+01
          0                 2           2             4    7     1      -0.2422206050E-02       4    7    1        -0.1310178113E+00      0.2808480008E+00
          0                 3           2             4    7     1       0.1649431211E-03       4    7    1         0.9171242159E-02      0.1965926867E-01
          0                 4           1             4    7     1      -0.6563241674E-05       4    7    1        -0.3751043596E-03      0.8040537344E-03

    ------------------------------------------------
       NWT REQUIRED            4 OUTER ITERATIONS 
       AND A TOTAL OF          7 INNER ITERATIONS.
    ------------------------------------------------

 NO OUTPUT CONTROL FOR STRESS PERIOD   25   TIME STEP    3
 
 SOLVING FOR HEAD 
                                                   Max.-Head-Change                         Max.-Flux-Residual
  Residual-Control   Outer-Iter.   Inner-Iter.     Column Row Layer    Maximum-Head-Change  Column Row Layer    Maximum-Flux-Residual          L2-NORM 
          0                 1           2             4    7     1       0.2459155210E-01       4    7    1         0.1293808300E+01      0.2780019439E+01
          0                 2           2             4    7     1      -0.2392100505E-02       4    7    1        -0.1293817150E+00      0.2780014712E+00
          0                 3           2             4    7     1       0.1628930487E-03       4    7    1         0.9056715596E-02      0.1945999996E-01
          0                 4           1             4    7     1      -0.6481667437E-05       4    7    1        -0.3704202200E-03      0.7959108817E-03

    ------------------------------------------------
       NWT REQUIRED            4 OUTER ITERATIONS 
       AND A TOTAL OF          7 INNER ITERATIONS.
    ------------------------------------------------

 NO OUTPUT CONTROL FOR STRESS PERIOD   25   TIME STEP    4
 
 SOLVING FOR HEAD 
                                                   Max.-Head-Change                         Max.-Flux-Residual
  Residual-Control   Outer-Iter.   Inner-Iter.     Column Row Layer    Maximum-Head-Change  Column Row Layer    Maximum-Flux-Residual          L2-NORM 
          0                 1           2             4    7     1       0.2428731122E-01       4    7    1         0.1277724989E+01      0.2752046223E+01
          0                 2           2             4    7     1      -0.2362505838E-02       4    7    1        -0.1277733616E+00      0.2752041941E+00
          0                 3           2             4    7     1       0.1608777642E-03       4    7    1         0.8944131019E-02      0.1926421142E-01
          0                 4           1             4    7     1      -0.6401477610E-05       4    7    1        -0.3658155097E-03      0.7879046579E-03

    ------------------------------------------------
       NWT REQUIRED            4 OUTER ITERATIONS 
       AND A TOTAL OF          7 INNER ITERATIONS.
    ------------------------------------------------

 NO OUTPUT CONTROL FOR STRESS PERIOD   25   TIME STEP    5
 
 SOLVING FOR HEAD 
                                                   Max.-Head-Change                         Max.-Flux-Residual
  Residual-Control   Outer-Iter.   Inner-Iter.     Column Row Layer    Maximum-Head-Change  Column Row Layer    Maximum-Flux-Residual          L2-NORM 
          0                 1           2             4    7     1       0.2398835620E-01       4    7    1         0.1261921278E+01      0.2724560417E+01
          0                 2           2             4    7     1      -0.2333425408E-02       4    7    1        -0.1261929690E+00      0.2724556796E+00
          0                 3           2             4    7     1       0.1588974979E-03       4    7    1         0.8833503688E-02      0.1907180180E-01
          0                 4           1             4    7     1      -0.6322680826E-05       4    7    1        -0.3612908417E-03      0.7800302292E-03

    ------------------------------------------------
       NWT REQUIRED            4 OUTER ITERATIONS 
       AND A TOTAL OF          7 INNER ITERATIONS.
    ------------------------------------------------

 NO OUTPUT CONTROL FOR STRESS PERIOD   25   TIME STEP    6
 
 SOLVING FOR HEAD 
                                                   Max.-Head-Change                         Max.-Flux-Residual
  Residual-Control   Outer-Iter.   Inner-Iter.     Column Row Layer    Maximum-Head-Change  Column Row Layer    Maximum-Flux-Residual          L2-NORM 
          0                 1           2             4    7     1       0.2369444719E-01       4    7    1         0.1246384329E+01      0.2697545345E+01
          0                 2           2             4    7     1      -0.2304835764E-02       4    7    1        -0.1246392530E+00      0.2697541966E+00
          0                 3           2             4    7     1       0.1569506522E-03       4    7    1         0.8724743721E-02      0.1888271366E-01
          0                 4           1             4    7     1      -0.6245214112E-05       4    7    1        -0.3568425554E-03      0.7723045308E-03

    ------------------------------------------------
       NWT REQUIRED            4 OUTER ITERATIONS 
       AND A TOTAL OF          7 INNER ITERATIONS.
    ------------------------------------------------

 NO OUTPUT CONTROL FOR STRESS PERIOD   25   TIME STEP    7
 
 SOLVING FOR HEAD 
                                                   Max.-Head-Change                         Max.-Flux-Residual
  Residual-Control   Outer-Iter.   Inner-Iter.     Column Row Layer    Maximum-Head-Change  Column Row Layer    Maximum-Flux-Residual          L2-NORM 
          0                 1           2             4    7     1       0.2340562038E-01       4    7    1         0.1231116308E+01      0.2670985659E+01
          0                 2           2             4    7     1      -0.2276740487E-02       4    7    1        -0.1231124304E+00      0.2670982393E+00
          0                 3           2             4    7     1       0.1550374706E-03       4    7    1         0.8617866284E-02      0.1869678806E-01
          0                 4           1             4    7     1      -0.6169086562E-05       4    7    1        -0.3524712479E-03      0.7647037204E-03

    ------------------------------------------------
       NWT REQUIRED            4 OUTER ITERATIONS 
       AND A TOTAL OF          7 INNER ITERATIONS.
    ------------------------------------------------

 NO OUTPUT CONTROL FOR STRESS PERIOD   25   TIME STEP    8
 
 SOLVING FOR HEAD 
                                                   Max.-Head-Change                         Max.-Flux-Residual
  Residual-Control   Outer-Iter.   Inner-Iter.     Column Row Layer    Maximum-Head-Change  Column Row Layer    Maximum-Flux-Residual          L2-NORM 
          0                 1           2             4    7     1       0.2312177498E-01       4    7    1         0.1216111790E+01      0.2644883057E+01
          0                 2           2             4    7     1      -0.2249129775E-02       4    7    1        -0.1216119587E+00      0.2644879719E+00
          0                 3           2             4    7     1       0.1531572865E-03       4    7    1         0.8512833402E-02      0.1851407080E-01
          0                 4           1             4    7     1      -0.6094272503E-05       4    7    1        -0.3481754061E-03      0.7572223711E-03

    ------------------------------------------------
       NWT REQUIRED            4 OUTER ITERATIONS 
       AND A TOTAL OF          7 INNER ITERATIONS.
    ------------------------------------------------

 NO OUTPUT CONTROL FOR STRESS PERIOD   25   TIME STEP    9
 
 SOLVING FOR HEAD 
                                                   Max.-Head-Change                         Max.-Flux-Residual
  Residual-Control   Outer-Iter.   Inner-Iter.     Column Row Layer    Maximum-Head-Change  Column Row Layer    Maximum-Flux-Residual          L2-NORM 
          0                 1           2             4    7     1       0.2284267645E-01       4    7    1         0.1201358251E+01      0.2619215636E+01
          0                 2           2             4    7     1      -0.2221980811E-02       4    7    1        -0.1201365853E+00      0.2619212519E+00
          0                 3           2             4    7     1       0.1513085456E-03       4    7    1         0.8409557417E-02      0.1833439928E-01
          0                 4           1             4    7     1      -0.6020708959E-05       4    7    1        -0.3439514071E-03      0.7498646200E-03

    ------------------------------------------------
       NWT REQUIRED            4 OUTER ITERATIONS 
       AND A TOTAL OF          7 INNER ITERATIONS.
    ------------------------------------------------

 NO OUTPUT CONTROL FOR STRESS PERIOD   25   TIME STEP   10
 
 SOLVING FOR HEAD 
                                                   Max.-Head-Change                         Max.-Flux-Residual
  Residual-Control   Outer-Iter.   Inner-Iter.     Column Row Layer    Maximum-Head-Change  Column Row Layer    Maximum-Flux-Residual          L2-NORM 
          0                 1           2             4    7     1       0.2256836390E-01       4    7    1         0.1186858127E+01      0.2593973503E+01
          0                 2           2             4    7     1      -0.2195297401E-02       4    7    1        -0.1186865541E+00      0.2593970507E+00
          0                 3           2             4    7     1       0.1494915067E-03       4    7    1         0.8308055361E-02      0.1815772500E-01
          0                 4           1             4    7     1      -0.5948407214E-05       4    7    1        -0.3397999562E-03      0.7426491023E-03

    ------------------------------------------------
       NWT REQUIRED            4 OUTER ITERATIONS 
       AND A TOTAL OF          7 INNER ITERATIONS.
    ------------------------------------------------

 NO OUTPUT CONTROL FOR STRESS PERIOD   25   TIME STEP   11
 
 SOLVING FOR HEAD 
                                                   Max.-Head-Change                         Max.-Flux-Residual
  Residual-Control   Outer-Iter.   Inner-Iter.     Column Row Layer    Maximum-Head-Change  Column Row Layer    Maximum-Flux-Residual          L2-NORM 
          0                 1           2             4    7     1       0.2229887022E-01       4    7    1         0.1172613449E+01      0.2569156336E+01
          0                 2           2             4    7     1      -0.2169082742E-02       4    7    1        -0.1172620679E+00      0.2569153245E+00
          0                 3           2             4    7     1       0.1477063881E-03       4    7    1         0.8208341445E-02      0.1798400046E-01
          0                 4           1             4    7     1      -0.5877375788E-05       4    7    1        -0.3357216569E-03      0.7355468255E-03

    ------------------------------------------------
       NWT REQUIRED            4 OUTER ITERATIONS 
       AND A TOTAL OF          7 INNER ITERATIONS.
    ------------------------------------------------

 NO OUTPUT CONTROL FOR STRESS PERIOD   25   TIME STEP   12
 
 SOLVING FOR HEAD 
                                                   Max.-Head-Change                         Max.-Flux-Residual
  Residual-Control   Outer-Iter.   Inner-Iter.     Column Row Layer    Maximum-Head-Change  Column Row Layer    Maximum-Flux-Residual          L2-NORM 
          0                 1           2             4    7     1       0.2203382812E-01       4    7    1         0.1158604021E+01      0.2544747448E+01
          0                 2           2             4    7     1      -0.2143301108E-02       4    7    1        -0.1158611072E+00      0.2544744518E+00
          0                 3           2             4    7     1       0.1459507574E-03       4    7    1         0.8110274340E-02      0.1781314568E-01
          0                 4           1             4    7     1      -0.5807517856E-05       4    7    1        -0.3317107144E-03      0.7285545043E-03

    ------------------------------------------------
       NWT REQUIRED            4 OUTER ITERATIONS 
       AND A TOTAL OF          7 INNER ITERATIONS.
    ------------------------------------------------

 NO OUTPUT CONTROL FOR STRESS PERIOD   25   TIME STEP   13
 
 SOLVING FOR HEAD 
                                                   Max.-Head-Change                         Max.-Flux-Residual
  Residual-Control   Outer-Iter.   Inner-Iter.     Column Row Layer    Maximum-Head-Change  Column Row Layer    Maximum-Flux-Residual          L2-NORM 
          0                 1           2             4    7     1       0.2177328137E-01       4    7    1         0.1144832699E+01      0.2520739794E+01
          0                 2           2             4    7     1      -0.2117956756E-02       4    7    1        -0.1144839577E+00      0.2520736817E+00
          0                 3           2             4    7     1       0.1442249035E-03       4    7    1         0.8013873988E-02      0.1764509258E-01
          0                 4           1             4    7     1      -0.5738844358E-05       4    7    1        -0.3277679316E-03      0.7216866116E-03

    ------------------------------------------------
       NWT REQUIRED            4 OUTER ITERATIONS 
       AND A TOTAL OF          7 INNER ITERATIONS.
    ------------------------------------------------

 NO OUTPUT CONTROL FOR STRESS PERIOD   25   TIME STEP   14
 
 SOLVING FOR HEAD 
                                                   Max.-Head-Change                         Max.-Flux-Residual
  Residual-Control   Outer-Iter.   Inner-Iter.     Column Row Layer    Maximum-Head-Change  Column Row Layer    Maximum-Flux-Residual          L2-NORM 
          0                 1           2             4    7     1       0.2151713509E-01       4    7    1         0.1131294454E+01      0.2497119660E+01
          0                 2           2             4    7     1      -0.2093040457E-02       4    7    1        -0.1131301163E+00      0.2497116496E+00
          0                 3           2             4    7     1       0.1425281984E-03       4    7    1         0.7919105212E-02      0.1747974380E-01
          0                 4           1             4    7     1      -0.5671330885E-05       4    7    1        -0.3238918780E-03      0.7149166678E-03

    ------------------------------------------------
       NWT REQUIRED            4 OUTER ITERATIONS 
       AND A TOTAL OF          7 INNER ITERATIONS.
    ------------------------------------------------

 NO OUTPUT CONTROL FOR STRESS PERIOD   25   TIME STEP   15
 
 SOLVING FOR HEAD 
                                                   Max.-Head-Change                         Max.-Flux-Residual
  Residual-Control   Outer-Iter.   Inner-Iter.     Column Row Layer    Maximum-Head-Change  Column Row Layer    Maximum-Flux-Residual          L2-NORM 
          0                 1           2             4    7     1       0.2126543476E-01       4    7    1         0.1117991668E+01      0.2473884552E+01
          0                 2           2             4    7     1      -0.2068557236E-02       4    7    1        -0.1117998212E+00      0.2474262063E+00
          0                 3           2             4    7     1       0.1408609841E-03       4    7    1         0.7825984662E-02      0.1731976384E-01
          0                 4           1             4    7     1      -0.5604990908E-05       4    7    1        -0.3200832552E-03      0.7083873408E-03

    ------------------------------------------------
       NWT REQUIRED            4 OUTER ITERATIONS 
       AND A TOTAL OF          7 INNER ITERATIONS.
    ------------------------------------------------

 NO OUTPUT CONTROL FOR STRESS PERIOD   25   TIME STEP   16
 
 SOLVING FOR HEAD 
                                                   Max.-Head-Change                         Max.-Flux-Residual
  Residual-Control   Outer-Iter.   Inner-Iter.     Column Row Layer    Maximum-Head-Change  Column Row Layer    Maximum-Flux-Residual          L2-NORM 
          0                 1           2             4    7     1       0.2101781207E-01       4    7    1         0.1104904761E+01      0.2450992463E+01
          0                 2           2             4    7     1      -0.2044469463E-02       4    7    1        -0.1104911145E+00      0.2450989497E+00
          0                 3           2             4    7     1       0.1392206985E-03       4    7    1         0.7734375316E-02      0.1715686428E-01
          0                 4           1             4    7     1      -0.5539722308E-05       4    7    1        -0.3163364231E-03      0.7017218191E-03

    ------------------------------------------------
       NWT REQUIRED            4 OUTER ITERATIONS 
       AND A TOTAL OF          7 INNER ITERATIONS.
    ------------------------------------------------

 NO OUTPUT CONTROL FOR STRESS PERIOD   25   TIME STEP   17
 
 SOLVING FOR HEAD 
                                                   Max.-Head-Change                         Max.-Flux-Residual
  Residual-Control   Outer-Iter.   Inner-Iter.     Column Row Layer    Maximum-Head-Change  Column Row Layer    Maximum-Flux-Residual          L2-NORM 
          0                 1           2             4    7     1       0.2077445659E-01       4    7    1         0.1092043941E+01      0.2428456609E+01
          0                 2           2             4    7     1      -0.2020797379E-02       4    7    1        -0.1092050169E+00      0.2428453492E+00
          0                 3           2             4    7     1       0.1376087197E-03       4    7    1         0.7644348587E-02      0.1699909838E-01
          0                 4           1             4    7     1      -0.5475580232E-05       4    7    1        -0.3126543302E-03      0.6952615072E-03

    ------------------------------------------------
       NWT REQUIRED            4 OUTER ITERATIONS 
       AND A TOTAL OF          7 INNER ITERATIONS.
    ------------------------------------------------

 NO OUTPUT CONTROL FOR STRESS PERIOD   25   TIME STEP   18
 
 SOLVING FOR HEAD 
                                                   Max.-Head-Change                         Max.-Flux-Residual
  Residual-Control   Outer-Iter.   Inner-Iter.     Column Row Layer    Maximum-Head-Change  Column Row Layer    Maximum-Flux-Residual          L2-NORM 
          0                 1           2             4    7     1       0.2053527049E-01       4    7    1         0.1079404337E+01      0.2406279361E+01
          0                 2           2             4    7     1      -0.1997530869E-02       4    7    1        -0.1079410413E+00      0.2406276239E+00
          0                 3           2             4    7     1       0.1360243589E-03       4    7    1         0.7555870409E-02      0.1684385513E-01
          0                 4           1             4    7     1      -0.5412537279E-05       4    7    1        -0.3090355644E-03      0.6889017408E-03

    ------------------------------------------------
       NWT REQUIRED            4 OUTER ITERATIONS 
       AND A TOTAL OF          7 INNER ITERATIONS.
    ------------------------------------------------

 NO OUTPUT CONTROL FOR STRESS PERIOD   25   TIME STEP   19
 
 SOLVING FOR HEAD 
                                                   Max.-Head-Change                         Max.-Flux-Residual
  Residual-Control   Outer-Iter.   Inner-Iter.     Column Row Layer    Maximum-Head-Change  Column Row Layer    Maximum-Flux-Residual          L2-NORM 
          0                 1           2             4    7     1       0.2030002957E-01       4    7    1         0.1066973606E+01      0.2384454568E+01
          0                 2           2             4    7     1      -0.1974648124E-02       4    7    1        -0.1066979535E+00      0.2384451431E+00
          0                 3           2             4    7     1       0.1344661307E-03       4    7    1         0.7468854358E-02      0.1669107939E-01
          0                 4           1             4    7     1      -0.5350533698E-05       4    7    1        -0.3054765998E-03      0.6826554179E-03

    ------------------------------------------------
       NWT REQUIRED            4 OUTER ITERATIONS 
       AND A TOTAL OF          7 INNER ITERATIONS.
    ------------------------------------------------

 NO OUTPUT CONTROL FOR STRESS PERIOD   25   TIME STEP   20
 
 SOLVING FOR HEAD 
                                                   Max.-Head-Change                         Max.-Flux-Residual
  Residual-Control   Outer-Iter.   Inner-Iter.     Column Row Layer    Maximum-Head-Change  Column Row Layer    Maximum-Flux-Residual          L2-NORM 
          0                 1           2             4    7     1       0.2006865238E-01       4    7    1         0.1054747426E+01      0.2362973817E+01
          0                 2           2             4    7     1      -0.1952141221E-02       4    7    1        -0.1054753211E+00      0.2362970608E+00
          0                 3           2             4    7     1       0.1329334963E-03       4    7    1         0.7383270197E-02      0.1654072090E-01
          0                 4           1             4    7     1      -0.5289548881E-05       4    7    1        -0.3019762112E-03      0.6765154029E-03

    ------------------------------------------------
       NWT REQUIRED            4 OUTER ITERATIONS 
       AND A TOTAL OF          7 INNER ITERATIONS.
    ------------------------------------------------

 NO OUTPUT CONTROL FOR STRESS PERIOD   25   TIME STEP   21
 
 SOLVING FOR HEAD 
                                                   Max.-Head-Change                         Max.-Flux-Residual
  Residual-Control   Outer-Iter.   Inner-Iter.     Column Row Layer    Maximum-Head-Change  Column Row Layer    Maximum-Flux-Residual          L2-NORM 
          0                 1           2             4    7     1       0.1984118951E-01       4    7    1         0.1042728877E+01      0.2341826516E+01
          0                 2           2             4    7     1      -0.1930015079E-02       4    7    1        -0.1042734523E+00      0.2341823237E+00
          0                 3           2             4    7     1       0.1314267898E-03       4    7    1         0.7299139471E-02      0.1639267809E-01
          0                 4           1             4    7     1      -0.5229595147E-05       4    7    1        -0.2985352394E-03      0.6704468577E-03

    ------------------------------------------------
       NWT REQUIRED            4 OUTER ITERATIONS 
       AND A TOTAL OF          7 INNER ITERATIONS.
    ------------------------------------------------

 NO OUTPUT CONTROL FOR STRESS PERIOD   25   TIME STEP   22
 
 SOLVING FOR HEAD 
                                                   Max.-Head-Change                         Max.-Flux-Residual
  Residual-Control   Outer-Iter.   Inner-Iter.     Column Row Layer    Maximum-Head-Change  Column Row Layer    Maximum-Flux-Residual          L2-NORM 
          0                 1           2             4    7     1       0.1961755719E-01       4    7    1         0.1030913279E+01      0.2321015379E+01
          0                 2           2             4    7     1      -0.1908261552E-02       4    7    1        -0.1030918790E+00      0.2321011943E+00
          0                 3           2             4    7     1       0.1299454574E-03       4    7    1         0.7216429439E-02      0.1624698376E-01
          0                 4           1             4    7     1      -0.5170651888E-05       4    7    1        -0.2951523952E-03      0.6644902599E-03

    ------------------------------------------------
       NWT REQUIRED            4 OUTER ITERATIONS 
       AND A TOTAL OF          7 INNER ITERATIONS.
    ------------------------------------------------

 NO OUTPUT CONTROL FOR STRESS PERIOD   25   TIME STEP   23
 
 SOLVING FOR HEAD 
                                                   Max.-Head-Change                         Max.-Flux-Residual
  Residual-Control   Outer-Iter.   Inner-Iter.     Column Row Layer    Maximum-Head-Change  Column Row Layer    Maximum-Flux-Residual          L2-NORM 
          0                 1           2             4    7     1       0.1939753493E-01       4    7    1         0.1019288986E+01      0.2300520395E+01
          0                 2           2             4    7     1      -0.1886859190E-02       4    7    1        -0.1019294365E+00      0.2300516737E+00
          0                 3           2             4    7     1       0.1284880378E-03       4    7    1         0.7135058541E-02      0.1610352174E-01
          0                 4           1             4    7     1      -0.5112659698E-05       4    7    1        -0.2918243363E-03      0.6586324545E-03

    ------------------------------------------------
       NWT REQUIRED            4 OUTER ITERATIONS 
       AND A TOTAL OF          7 INNER ITERATIONS.
    ------------------------------------------------

 NO OUTPUT CONTROL FOR STRESS PERIOD   25   TIME STEP   24
 
 SOLVING FOR HEAD 
                                                   Max.-Head-Change                         Max.-Flux-Residual
  Residual-Control   Outer-Iter.   Inner-Iter.     Column Row Layer    Maximum-Head-Change  Column Row Layer    Maximum-Flux-Residual          L2-NORM 
          0                 1           2             4    7     1       0.1918118413E-01       4    7    1         0.1007859172E+01      0.2280345413E+01
          0                 2           2             4    7     1      -0.1865813967E-02       4    7    1        -0.1007864422E+00      0.2280342139E+00
          0                 3           2             4    7     1       0.1270549377E-03       4    7    1         0.7055049031E-02      0.1596234437E-01
          0                 4           1             4    7     1      -0.5055635041E-05       4    7    1        -0.2885519229E-03      0.6528627484E-03

    ------------------------------------------------
       NWT REQUIRED            4 OUTER ITERATIONS 
       AND A TOTAL OF          7 INNER ITERATIONS.
    ------------------------------------------------

 NO OUTPUT CONTROL FOR STRESS PERIOD   25   TIME STEP   25
 
 SOLVING FOR HEAD 
                                                   Max.-Head-Change                         Max.-Flux-Residual
  Residual-Control   Outer-Iter.   Inner-Iter.     Column Row Layer    Maximum-Head-Change  Column Row Layer    Maximum-Flux-Residual          L2-NORM 
          0                 1           2             4    7     1       0.1896828649E-01       4    7    1         0.9966124137E+00      0.2260473153E+01
          0                 2           2             4    7     1      -0.1845104646E-02       4    7    1        -0.9966175386E-01      0.2260469886E+00
          0                 3           2             4    7     1       0.1256447115E-03       4    7    1         0.6976320928E-02      0.1582325218E-01
          0                 4           1             4    7     1      -0.4999520927E-05       4    7    1        -0.2853319347E-03      0.6471659347E-03

    ------------------------------------------------
       NWT REQUIRED            4 OUTER ITERATIONS 
       AND A TOTAL OF          7 INNER ITERATIONS.
    ------------------------------------------------

 NO OUTPUT CONTROL FOR STRESS PERIOD   25   TIME STEP   26
 
 SOLVING FOR HEAD 
                                                   Max.-Head-Change                         Max.-Flux-Residual
  Residual-Control   Outer-Iter.   Inner-Iter.     Column Row Layer    Maximum-Head-Change  Column Row Layer    Maximum-Flux-Residual          L2-NORM 
          0                 1           2             4    7     1       0.1875904161E-01       4    7    1         0.9855593050E+00      0.2240916109E+01
          0                 2           2             4    7     1      -0.1824750645E-02       4    7    1        -0.9855643086E-01      0.2240912556E+00
          0                 3           1             4    7     1       0.1242586846E-03       4    7    1         0.6898948403E-02      0.1568632524E-01
          0                 4           1             4    7     1      -0.4944372734E-05       4    7    1        -0.2821673979E-03      0.6415683829E-03

    ------------------------------------------------
       NWT REQUIRED            4 OUTER ITERATIONS 
       AND A TOTAL OF          6 INNER ITERATIONS.
    ------------------------------------------------

 NO OUTPUT CONTROL FOR STRESS PERIOD   25   TIME STEP   27
 
 SOLVING FOR HEAD 
                                                   Max.-Head-Change                         Max.-Flux-Residual
  Residual-Control   Outer-Iter.   Inner-Iter.     Column Row Layer    Maximum-Head-Change  Column Row Layer    Maximum-Flux-Residual          L2-NORM 
          0                 1           2             4    7     1       0.1855309976E-01       4    7    1         0.9746809763E+00      0.2221645966E+01
          0                 2           2             4    7     1      -0.1804717944E-02       4    7    1        -0.9746858617E-01      0.2221642370E+00
          0                 3           1             4    7     1       0.1228945339E-03       4    7    1         0.6822799354E-02      0.1555144041E-01
          0                 4           1             4    7     1      -0.4890092143E-05       4    7    1        -0.2790529093E-03      0.6360533654E-03

    ------------------------------------------------
       NWT REQUIRED            4 OUTER ITERATIONS 
       AND A TOTAL OF          6 INNER ITERATIONS.
    ------------------------------------------------

 NO OUTPUT CONTROL FOR STRESS PERIOD   25   TIME STEP   28
 
 SOLVING FOR HEAD 
                                                   Max.-Head-Change                         Max.-Flux-Residual
  Residual-Control   Outer-Iter.   Inner-Iter.     Column Row Layer    Maximum-Head-Change  Column Row Layer    Maximum-Flux-Residual          L2-NORM 
          0                 1           2             4    7     1       0.1835065498E-01       4    7    1         0.9639885153E+00      0.2202672427E+01
          0                 2           2             4    7     1      -0.1785025417E-02       4    7    1        -0.9639932857E-01      0.2202668536E+00
          0                 3           1             4    7     1       0.1215535474E-03       4    7    1         0.6747951404E-02      0.1541860560E-01
          0                 4           1             4    7     1      -0.4836732803E-05       4    7    1        -0.2759916092E-03      0.6306205644E-03

    ------------------------------------------------
       NWT REQUIRED            4 OUTER ITERATIONS 
       AND A TOTAL OF          6 INNER ITERATIONS.
    ------------------------------------------------

 NO OUTPUT CONTROL FOR STRESS PERIOD   25   TIME STEP   29
 
 SOLVING FOR HEAD 
                                                   Max.-Head-Change                         Max.-Flux-Residual
  Residual-Control   Outer-Iter.   Inner-Iter.     Column Row Layer    Maximum-Head-Change  Column Row Layer    Maximum-Flux-Residual          L2-NORM 
          0                 1           2             4    7     1       0.1815136310E-01       4    7    1         0.9534627612E+00      0.2184037605E+01
          0                 2           2             4    7     1      -0.1765639586E-02       4    7    1        -0.9534674195E-01      0.2184033188E+00
          0                 3           1             4    7     1       0.1202334458E-03       4    7    1         0.6674270410E-02      0.1528816526E-01
          0                 4           1             4    7     1      -0.4784205029E-05       4    7    1        -0.2729780567E-03      0.6252846728E-03

    ------------------------------------------------
       NWT REQUIRED            4 OUTER ITERATIONS 
       AND A TOTAL OF          6 INNER ITERATIONS.
    ------------------------------------------------

 NO OUTPUT CONTROL FOR STRESS PERIOD   25   TIME STEP   30



 STREAM LISTING     PERIOD     25   STEP       30

 LAYER ROW COL. STREAM  RCH.  FLOW INTO     FLOW TO   FLOW OUT OF   OVRLND.     DIRECT     STREAM       STREAM     STREAM     STREAM   STREAMBED  STREAMBED
                SEG.NO.  NO.  STRM. RCH.    AQUIFER    STRM. RCH.    RUNOFF     PRECIP       ET          HEAD       DEPTH      WIDTH   CONDCTNC.   GRADIENT

   1    1    1     1     1    7.4712E+00  1.2395E-01   7.3473E+00  0.000E+00  0.000E+00  0.000E+00  1.09386E+03  8.152E-01  7.220E+00  3.249E-02  1.272E+00
   1    2    2     1     2    7.3473E+00  1.9029E-01   7.1570E+00  0.000E+00  0.000E+00  0.000E+00  1.08887E+03  8.094E-01  7.136E+00  4.995E-02  1.270E+00
   1    3    3     1     3    7.1570E+00  1.6067E-01   6.9963E+00  0.000E+00  0.000E+00  0.000E+00  1.08322E+03  8.029E-01  7.042E+00  4.225E-02  1.268E+00
   1    3    4     1     4    6.9963E+00  1.4674E-01   6.8496E+00  0.000E+00  0.000E+00  0.000E+00  1.07821E+03  7.979E-01  6.962E+00  3.864E-02  1.266E+00
   1    4    5     2     1    4.8496E+00  2.6862E-01   4.5810E+00  0.000E+00  0.000E+00  0.000E+00  1.07238E+03  4.439E-01  1.200E+01  7.800E-02  1.148E+00
   1    5    6     2     2    4.5810E+00  2.0582E-01   4.3752E+00  0.000E+00  0.000E+00  0.000E+00  1.06694E+03  4.303E-01  1.200E+01  6.000E-02  1.143E+00
   1    6    6     2     3    4.3752E+00  2.0510E-01   4.1701E+00  0.000E+00  0.000E+00  0.000E+00  1.06221E+03  4.184E-01  1.200E+01  6.000E-02  1.139E+00
   1    7    6     2     4    4.1701E+00  2.0437E-01   3.9657E+00  0.000E+00  0.000E+00  0.000E+00  1.05748E+03  4.062E-01  1.200E+01  6.000E-02  1.135E+00
   1    8    6     2     5    3.9657E+00  2.0363E-01   3.7620E+00  0.000E+00  0.000E+00  0.000E+00  1.05275E+03  3.939E-01  1.200E+01  6.000E-02  1.131E+00
   1    3    5     3     1    2.0000E+00  2.8252E-01   1.7175E+00  0.000E+00  0.000E+00  0.000E+00  1.07555E+03  1.909E+00  9.636E+00  7.227E-02  1.955E+00
   1    3    6     3     2    1.7175E+00  2.4905E-01   1.4684E+00  0.000E+00  0.000E+00  0.000E+00  1.07264E+03  1.727E+00  8.909E+00  6.682E-02  1.864E+00
   1    3    7     3     3    1.4684E+00  1.9718E-01   1.2712E+00  0.000E+00  0.000E+00  0.000E+00  1.06987E+03  1.555E+00  8.218E+00  5.547E-02  1.777E+00
   1    4    8     3     4    1.2712E+00  2.2567E-01   1.0456E+00  0.000E+00  0.000E+00  0.000E+00  1.06682E+03  1.364E+00  7.455E+00  6.709E-02  1.682E+00
   1    5    8     3     5    1.0456E+00  1.5790E-01   8.8768E-01  0.000E+00  0.000E+00  0.000E+00  1.06362E+03  1.164E+00  6.655E+00  4.991E-02  1.582E+00
   1    6    8     3     6    8.8768E-01  5.5980E-02   8.3170E-01  0.000E+00  0.000E+00  0.000E+00  1.06158E+03  1.036E+00  6.145E+00  1.844E-02  1.518E+00
   1    5   10     4     1    1.0000E+01  9.0919E-02   9.9091E+00  0.000E+00  0.000E+00  0.000E+00  1.07836E+03  6.368E-01  1.000E+01  2.500E-02  1.212E+00
   1    5    9     4     2    9.9091E+00  1.8158E-01   9.7275E+00  0.000E+00  0.000E+00  0.000E+00  1.07154E+03  6.315E-01  1.000E+01  5.000E-02  1.211E+00
   1    6    8     4     3    9.7275E+00  1.2689E-01   9.6006E+00  0.000E+00  0.000E+00  0.000E+00  1.06381E+03  6.256E-01  1.000E+01  3.500E-02  1.209E+00
   1    6    8     5     1    1.0432E+01  2.2686E-01   1.0205E+01  0.000E+00  0.000E+00  0.000E+00  1.05868E+03  6.790E-01  1.542E+01  6.166E-02  1.226E+00
   1    7    7     5     2    1.0205E+01  2.7894E-01   9.9265E+00  0.000E+00  0.000E+00  0.000E+00  1.05417E+03  6.732E-01  1.519E+01  7.594E-02  1.224E+00
   1    8    7     5     3    9.9265E+00  1.9221E-01   9.7343E+00  0.000E+00  0.000E+00  0.000E+00  1.04992E+03  6.676E-01  1.497E+01  5.241E-02  1.223E+00
   1    8    6     5     4    9.7343E+00  1.3577E-01   9.5985E+00  0.000E+00  0.000E+00  0.000E+00  1.04691E+03  6.637E-01  1.482E+01  3.706E-02  1.221E+00
   1    9    6     6     1    1.3361E+01  2.3005E-01   1.3131E+01  0.000E+00  0.000E+00  0.000E+00  1.04356E+03  8.341E-01  1.200E+01  6.000E-02  1.278E+00
   1   10    7     6     2    1.3131E+01  2.2952E-01   1.2901E+01  0.000E+00  0.000E+00  0.000E+00  1.03901E+03  8.254E-01  1.200E+01  6.000E-02  1.275E+00
   1   11    7     6     3    1.2901E+01  2.2900E-01   1.2672E+01  0.000E+00  0.000E+00  0.000E+00  1.03445E+03  8.166E-01  1.200E+01  6.000E-02  1.272E+00
   1   12    7     6     4    1.2672E+01  2.2847E-01   1.2444E+01  0.000E+00  0.000E+00  0.000E+00  1.02990E+03  8.078E-01  1.200E+01  6.000E-02  1.269E+00
   1   13    7     6     5    1.2444E+01  2.4549E-03   1.2441E+01  0.000E+00  0.000E+00  0.000E+00  1.02671E+03  8.034E-01  1.200E+01  2.400E-02  3.410E-02
   1   14    9     7     1    1.5000E+02  1.3813E+00   1.4862E+02  0.000E+00  0.000E+00  0.000E+00  1.03987E+03  2.288E+00  5.529E+01  5.593E-01  8.232E-01
   1   13    8     7     2    1.4862E+02  1.9814E+00   1.4664E+02  0.000E+00  0.000E+00  0.000E+00  1.03478E+03  2.279E+00  5.525E+01  6.147E-01  1.074E+00
   1   13    7     7     3    1.4664E+02  1.7186E+00   1.4492E+02  0.000E+00  0.000E+00  0.000E+00  1.02969E+03  2.269E+00  5.521E+01  5.584E-01  1.026E+00
   1   13    6     8     1    1.5736E+02  1.0978E+00   1.5626E+02  0.000E+00  0.000E+00  0.000E+00  1.02474E+03  2.864E+00  4.153E+01  4.232E-01  8.647E-01
   1   13    5     8     2    1.5626E+02  3.5218E-01   1.5591E+02  0.000E+00  0.000E+00  0.000E+00  1.01848E+03  2.859E+00  4.146E+01  4.225E-01  2.779E-01
   1   13    4     8     3    1.5591E+02 -1.8137E+00   1.5772E+02  0.000E+00  0.000E+00  0.000E+00  1.01224E+03  2.864E+00  4.153E+01  4.232E+00 -1.429E-01
   1   13    3     8     4    1.5772E+02 -3.3439E+00   1.6107E+02  0.000E+00  0.000E+00  0.000E+00  1.00601E+03  2.882E+00  4.179E+01  4.258E+00 -2.618E-01
   1   13    2     8     5    1.6107E+02 -2.5065E+00   1.6357E+02  0.000E+00  0.000E+00  0.000E+00  9.99776E+02  2.901E+00  4.207E+01  4.287E+00 -1.949E-01
   1   13    1     8     6    1.6357E+02 -1.9631E+00   1.6554E+02  0.000E+00  0.000E+00  0.000E+00  9.94791E+02  2.916E+00  4.229E+01  2.586E+00 -2.531E-01
   1    8    6     9     1    0.0000E+00  0.0000E+00   0.0000E+00  0.000E+00  0.000E+00  0.000E+00  1.07875E+03  0.000E+00  4.000E+00  0.000E+00  1.000E+00
   1    8    5     9     2    0.0000E+00  0.0000E+00   0.0000E+00  0.000E+00  0.000E+00  0.000E+00  1.07825E+03  0.000E+00  4.000E+00  0.000E+00  1.000E+00





UNSATURATED ZONE PACKAGE VOLUMETRIC BUDGET FOR  TIME STEP    30 STRESS PERIOD   25
  ------------------------------------------------------------------------------



     CUMULATIVE VOLUMES      L**3       RATES FOR THIS TIME STEP      L**3/T
     ------------------                 ------------------------

           IN:                                      IN:
           ---                                      ---
        INFILTRATION =  1115036164.2535          INFILTRATION =           0.8475

          OUT:                                     OUT:
          ----                                     ----
              UZF ET =   862294340.6715                UZF ET =           0.7500
        UZF RECHARGE =       73224.0000          UZF RECHARGE =       0.0000E+00

            IN - OUT =   252668599.5820              IN - OUT =       9.7500E-02

          STORAGE:                                 STORAGE:
          --------                                 --------
      STORAGE CHANGE =   252672838.1068        STORAGE CHANGE =       9.7500E-02

 PERCENT DISCREPANCY IS DIFFERENCE BETWEEN IN-OUT MINUS CHANGE IN STORAGE
 DIVIDED BY THE AVERAGE OF IN AND OUT TIMES 100

 PERCENT DISCREPANCY =          -0.00     PERCENT DISCREPANCY =           0.00






1
  VOLUMETRIC BUDGET FOR AGRICULTURAL FIELDS AT  END OF TIME STEP   30, STRESS PERIOD  25
  ------------------------------------------------------------------------------

     CUMULATIVE VOLUMES      L**3       RATES FOR THIS TIME STEP      L**3/T
     ------------------                 ------------------------

           IN:                                      IN:
           ---                                      ---
               AG WELLS  =   697628416.0000                 AG WELLS  =           0.0000
      DIVERSION SEGMENTS =   363935712.0000        DIVERSION SEGMENTS =           0.0000
       IRRIGATION PONDS  =           0.0000         IRRIGATION PONDS  =           0.0000
           GW IRRIGATION =           0.0000             GW IRRIGATION =           0.0000
           SW IRRIGATION =           0.0000             SW IRRIGATION =           0.0000
        SYSTEM LOSSES GW =           0.0000          SYSTEM LOSSES GW =           0.0000
        SYSTEM LOSSES SW =           0.0000          SYSTEM LOSSES SW =           0.0000

                TOTAL IN =  1061564160.0000                  TOTAL IN =           0.0000

          OUT:                                     OUT:
          ----                                     ----
               AG WELLS  =           0.0000                 AG WELLS  =           0.0000
      DIVERSION SEGMENTS =           0.0000        DIVERSION SEGMENTS =           0.0000
       IRRIGATION PONDS  =           0.0000         IRRIGATION PONDS  =           0.0000
           GW IRRIGATION =   697628416.0000             GW IRRIGATION =           0.0000
           SW IRRIGATION =   363942752.0000             SW IRRIGATION =           0.0000
        SYSTEM LOSSES GW =           0.0000          SYSTEM LOSSES GW =           0.0000
        SYSTEM LOSSES SW =           0.0000          SYSTEM LOSSES SW =           0.0000

               TOTAL OUT =  1061571200.0000                 TOTAL OUT =           0.0000

                IN - OUT =       -7040.0000                  IN - OUT =           0.0000

     PERCENT DISCREPANCY =          -0.00         PERCENT DISCREPANCY =           0.00



1
  VOLUMETRIC BUDGET FOR ENTIRE MODEL AT END OF TIME STEP   30, STRESS PERIOD  25
  ------------------------------------------------------------------------------

     CUMULATIVE VOLUMES      L**3       RATES FOR THIS TIME STEP      L**3/T
     ------------------                 ------------------------

           IN:                                      IN:
           ---                                      ---
             STORAGE     =  1077047296.0000               STORAGE     =           5.4011
       CONSTANT HEAD     =           0.0000         CONSTANT HEAD     =           0.0000
     HEAD DEP BOUNDS     =    18213308.0000       HEAD DEP BOUNDS     =           0.2889
      STREAM LEAKAGE     =   744837568.0000        STREAM LEAKAGE     =          11.5615
        UZF RECHARGE     =       73223.9531          UZF RECHARGE     =           0.0000
               GW ET     =           0.0000                 GW ET     =           0.0000
     SURFACE LEAKAGE     =           0.0000       SURFACE LEAKAGE     =           0.0000
           AG WELLS      =           0.0000             AG WELLS      =           0.0000

                TOTAL IN =  1840171264.0000                  TOTAL IN =          17.2514

          OUT:                                     OUT:
          ----                                     ----
             STORAGE     =   487461696.0000               STORAGE     =           7.3372
       CONSTANT HEAD     =           0.0000         CONSTANT HEAD     =           0.0000
     HEAD DEP BOUNDS     =    18192460.0000       HEAD DEP BOUNDS     =           0.2869
      STREAM LEAKAGE     =   636894272.0000        STREAM LEAKAGE     =           9.6272
        UZF RECHARGE     =           0.0000          UZF RECHARGE     =           0.0000
               GW ET     =           0.0000                 GW ET     =           0.0000
     SURFACE LEAKAGE     =           0.0000       SURFACE LEAKAGE     =           0.0000
           AG WELLS      =   697628416.0000             AG WELLS      =           0.0000

               TOTAL OUT =  1840176896.0000                 TOTAL OUT =          17.2514

                IN - OUT =       -5632.0000                  IN - OUT =       1.1444E-05

     PERCENT DISCREPANCY =          -0.00         PERCENT DISCREPANCY =           0.00






         TIME SUMMARY AT END OF TIME STEP   30 IN STRESS PERIOD   25
                    SECONDS     MINUTES      HOURS       DAYS        YEARS
                    -----------------------------------------------------------
   TIME STEP LENGTH  87667.      1461.1      24.352      1.0147     2.77799E-03
 STRESS PERIOD TIME 2.63000E+06  43833.      730.56      30.440     8.33397E-02
         TOTAL TIME 6.32067E+07 1.05345E+06  17557.      731.56      2.0029    
1
1
                            STRESS PERIOD NO.   26, LENGTH =   2630000.    
                            -----------------------------------------------

                              NUMBER OF TIME STEPS =    30

                               MULTIPLIER FOR DELT =     1.000

                            INITIAL TIME STEP SIZE =   87666.66    

 REUSING NON-PARAMETER GHB CELLS FROM LAST STRESS PERIOD

      2 GHB CELLS

 REUSING STREAM SEGMENT DATA FROM LAST STRESS PERIOD



            AREAL INFILTRATION RATE
 READING ON UNIT   19 WITH FORMAT: (FREE)              

            1           2           3           4           5           6           7           8           9          10
 ........................................................................................................................
   1   1.0000E-10  2.0000E-10   0.000       0.000       0.000       0.000       0.000       0.000       0.000       0.000    
   2   2.0000E-10  1.0000E-10  2.0000E-10   0.000       0.000      8.0000E-10  8.0000E-10  5.0000E-10   0.000       0.000    
   3    0.000      5.0000E-10  1.0000E-10  1.0000E-10  8.0000E-10  8.0000E-10  5.0000E-10  5.0000E-10   0.000       0.000    
   4   8.0000E-10  5.0000E-10  1.0000E-10  1.0000E-10  1.0000E-10  1.0000E-10  1.0000E-10  1.0000E-10  2.0000E-10   0.000    
   5   8.0000E-10  5.0000E-10  1.0000E-10  1.0000E-10  1.0000E-10  1.0000E-10  1.0000E-10  1.0000E-10  1.0000E-10  1.0000E-10
   6   8.0000E-10  5.0000E-10  5.0000E-10  2.0000E-10  2.0000E-10  1.0000E-10  1.0000E-10  1.0000E-10  1.0000E-10  5.0000E-10
   7   8.0000E-10  5.0000E-10  5.0000E-10  2.0000E-10  2.0000E-10  1.0000E-10  1.0000E-10  2.0000E-10  2.0000E-10   0.000    
   8    0.000      5.0000E-10  5.0000E-10  2.0000E-10  2.0000E-10  1.0000E-10  1.0000E-10  2.0000E-10  5.0000E-10   0.000    
   9    0.000      5.0000E-10  5.0000E-10  2.0000E-10  2.0000E-10  1.0000E-10  1.0000E-10  2.0000E-10  5.0000E-10   0.000    
  10    0.000      5.0000E-10  5.0000E-10  2.0000E-10  2.0000E-10  1.0000E-10  1.0000E-10  2.0000E-10  5.0000E-10  8.0000E-10
  11    0.000      1.0000E-10  1.0000E-10  1.0000E-10  1.0000E-10  1.0000E-10  1.0000E-10  2.0000E-10  5.0000E-10   0.000    
  12   1.0000E-10  1.0000E-10  1.0000E-10  1.0000E-10  1.0000E-10  1.0000E-10  1.0000E-10  1.0000E-10  2.0000E-10   0.000    
  13   1.0000E-10  1.0000E-10  2.0000E-10  2.0000E-10  2.0000E-10  2.0000E-10  2.0000E-10  1.0000E-10  1.0000E-10   0.000    
  14    0.000      2.0000E-10  5.0000E-10  5.0000E-10  5.0000E-10  5.0000E-10  5.0000E-10  2.0000E-10  1.0000E-10   0.000    
  15    0.000       0.000      8.0000E-10  8.0000E-10  8.0000E-10  8.0000E-10   0.000       0.000       0.000       0.000    

                  ET RATE =  5.000000E-10

 USING ET EXTINCTION DEPTH FROM PREVIOUS STRESS PERIOD. CURRENT PERIOD IS:      26

 USING EXTINCTION WATER CONTENT FROM PREVIOUS STRESS PERIOD. CURRENT PERIOD IS:      26

 USING AIR ENTRY PRESSURE FROM PREVIOUS STRESS PERIOD. CURRENT PERIOD IS:      26

 USING ROOT PRESSURE HEAD FROM PREVIOUS STRESS PERIOD. CURRENT PERIOD IS:      26

 USING ROOT ACTIVITY FROM PREVIOUS STRESS PERIOD. CURRENT PERIOD IS:      26

 PROCESSING AG STRESS PERIOD DATA

 READING AG STRESS PERIOD DATA

 READING IRRIGATION SEGMENT

 READING IRRIGATION WELL

 READING SUPPLEMENTAL WELL

 NO IRRPOND OR REUSING IRRPOND DATA FROM LAST STRESS PERIOD

 END PROCESSING AG STRESS PERIOD DATA OPTIONS
 
 SOLVING FOR HEAD 
                                                   Max.-Head-Change                         Max.-Flux-Residual
  Residual-Control   Outer-Iter.   Inner-Iter.     Column Row Layer    Maximum-Head-Change  Column Row Layer    Maximum-Flux-Residual          L2-NORM 
          0                 1           2             4    7     1       0.1795528875E-01       4    7    1         0.9431077851E+00      0.2166382697E+01
          0                 2           2             4    7     1      -0.1746566737E-02       4    7    1        -0.9431123346E-01      0.2166368110E+00
          0                 3           1             4    7     1       0.1189346573E-03       4    7    1         0.6601784899E-02      0.1516441001E-01
          0                 4           1             4    7     1      -0.4732524940E-05       4    7    1        -0.2700134010E-03      0.6202136034E-03

    ------------------------------------------------
       NWT REQUIRED            4 OUTER ITERATIONS 
       AND A TOTAL OF          6 INNER ITERATIONS.
    ------------------------------------------------

 NO OUTPUT CONTROL FOR STRESS PERIOD   26   TIME STEP    1
 
 SOLVING FOR HEAD 
                                                   Max.-Head-Change                         Max.-Flux-Residual
  Residual-Control   Outer-Iter.   Inner-Iter.     Column Row Layer    Maximum-Head-Change  Column Row Layer    Maximum-Flux-Residual          L2-NORM 
          0                 1           2             4    7     1       0.1776251008E-01       4    7    1         0.9329269392E+00      0.2146164726E+01
          0                 2           2             4    7     1      -0.1727814472E-02       4    7    1        -0.9329313827E-01      0.2146167923E+00
          0                 3           1             4    7     1       0.1176576989E-03       4    7    1         0.6530518300E-02      0.1502318383E-01
          0                 4           1             4    7     1      -0.4681713604E-05       4    7    1        -0.2670985950E-03      0.6144620982E-03

    ------------------------------------------------
       NWT REQUIRED            4 OUTER ITERATIONS 
       AND A TOTAL OF          6 INNER ITERATIONS.
    ------------------------------------------------

 NO OUTPUT CONTROL FOR STRESS PERIOD   26   TIME STEP    2
 
 SOLVING FOR HEAD 
                                                   Max.-Head-Change                         Max.-Flux-Residual
  Residual-Control   Outer-Iter.   Inner-Iter.     Column Row Layer    Maximum-Head-Change  Column Row Layer    Maximum-Flux-Residual          L2-NORM 
          0                 1           2             4    7     1       0.1757268782E-01       4    7    1         0.9229023565E+00      0.2128192014E+01
          0                 2           2             4    7     1      -0.1709349789E-02       4    7    1        -0.9229066965E-01      0.2128195013E+00
          0                 3           1             4    7     1       0.1164003239E-03       4    7    1         0.6460345563E-02      0.1489736069E-01
          0                 4           1             4    7     1      -0.4631681221E-05       4    7    1        -0.2642285172E-03      0.6093029101E-03

    ------------------------------------------------
       NWT REQUIRED            4 OUTER ITERATIONS 
       AND A TOTAL OF          6 INNER ITERATIONS.
    ------------------------------------------------

 NO OUTPUT CONTROL FOR STRESS PERIOD   26   TIME STEP    3
 
 SOLVING FOR HEAD 
                                                   Max.-Head-Change                         Max.-Flux-Residual
  Residual-Control   Outer-Iter.   Inner-Iter.     Column Row Layer    Maximum-Head-Change  Column Row Layer    Maximum-Flux-Residual          L2-NORM 
          0                 1           2             4    7     1       0.1738602687E-01       4    7    1         0.9130456727E+00      0.2110585017E+01
          0                 2           2             4    7     1      -0.1691192619E-02       4    7    1        -0.9130499120E-01      0.2110588051E+00
          0                 3           1             4    7     1       0.1151638891E-03       4    7    1         0.6391348122E-02      0.1477410989E-01
          0                 4           1             4    7     1      -0.4582482477E-05       4    7    1        -0.2614065206E-03      0.6042594351E-03

    ------------------------------------------------
       NWT REQUIRED            4 OUTER ITERATIONS 
       AND A TOTAL OF          6 INNER ITERATIONS.
    ------------------------------------------------

 NO OUTPUT CONTROL FOR STRESS PERIOD   26   TIME STEP    4
 
 SOLVING FOR HEAD 
                                                   Max.-Head-Change                         Max.-Flux-Residual
  Residual-Control   Outer-Iter.   Inner-Iter.     Column Row Layer    Maximum-Head-Change  Column Row Layer    Maximum-Flux-Residual          L2-NORM 
          0                 1           2             4    7     1       0.1720232324E-01       4    7    1         0.9033455908E+00      0.2093248511E+01
          0                 2           2             4    7     1      -0.1673323120E-02       4    7    1        -0.9033497323E-01      0.2093251496E+00
          0                 3           1             4    7     1       0.1139470440E-03       4    7    1         0.6323446931E-02      0.1465276033E-01
          0                 4           1             4    7     1      -0.4534062917E-05       4    7    1        -0.2586293567E-03      0.5993006049E-03

    ------------------------------------------------
       NWT REQUIRED            4 OUTER ITERATIONS 
       AND A TOTAL OF          6 INNER ITERATIONS.
    ------------------------------------------------

 NO OUTPUT CONTROL FOR STRESS PERIOD   26   TIME STEP    5
 
 SOLVING FOR HEAD 
                                                   Max.-Head-Change                         Max.-Flux-Residual
  Residual-Control   Outer-Iter.   Inner-Iter.     Column Row Layer    Maximum-Head-Change  Column Row Layer    Maximum-Flux-Residual          L2-NORM 
          0                 1           2             4    7     1       0.1702151180E-01       4    7    1         0.8937988412E+00      0.2076158880E+01
          0                 2           2             4    7     1      -0.1655734957E-02       4    7    1        -0.8938028875E-01      0.2076161737E+00
          0                 3           1             4    7     1       0.1127493569E-03       4    7    1         0.6256619093E-02      0.1453313075E-01
          0                 4           1             4    7     1      -0.4486406192E-05       4    7    1        -0.2558960982E-03      0.5944072664E-03

    ------------------------------------------------
       NWT REQUIRED            4 OUTER ITERATIONS 
       AND A TOTAL OF          6 INNER ITERATIONS.
    ------------------------------------------------

 NO OUTPUT CONTROL FOR STRESS PERIOD   26   TIME STEP    6
 
 SOLVING FOR HEAD 
                                                   Max.-Head-Change                         Max.-Flux-Residual
  Residual-Control   Outer-Iter.   Inner-Iter.     Column Row Layer    Maximum-Head-Change  Column Row Layer    Maximum-Flux-Residual          L2-NORM 
          0                 1           2             4    7     1       0.1684366624E-01       4    7    1         0.8844093553E+00      0.2059320048E+01
          0                 2           2             4    7     1      -0.1638448393E-02       4    7    1        -0.8844133091E-01      0.2059558650E+00
          0                 3           1             4    7     1       0.1115722073E-03       4    7    1         0.6190892102E-02      0.1441690989E-01
          0                 4           1             4    7     1      -0.4439566183E-05       4    7    1        -0.2532078606E-03      0.5896574406E-03

    ------------------------------------------------
       NWT REQUIRED            4 OUTER ITERATIONS 
       AND A TOTAL OF          6 INNER ITERATIONS.
    ------------------------------------------------

 NO OUTPUT CONTROL FOR STRESS PERIOD   26   TIME STEP    7
 
 SOLVING FOR HEAD 
                                                   Max.-Head-Change                         Max.-Flux-Residual
  Residual-Control   Outer-Iter.   Inner-Iter.     Column Row Layer    Maximum-Head-Change  Column Row Layer    Maximum-Flux-Residual          L2-NORM 
          0                 1           2             4    7     1       0.1666849174E-01       4    7    1         0.8751656395E+00      0.2042709884E+01
          0                 2           2             4    7     1      -0.1621395473E-02       4    7    1        -0.8751695048E-01      0.2042712488E+00
          0                 3           1             4    7     1       0.1104109678E-03       4    7    1         0.6126185520E-02      0.1429898519E-01
          0                 4           1             4    7     1      -0.4393359260E-05       4    7    1        -0.2505613629E-03      0.5848283246E-03

    ------------------------------------------------
       NWT REQUIRED            4 OUTER ITERATIONS 
       AND A TOTAL OF          6 INNER ITERATIONS.
    ------------------------------------------------

 NO OUTPUT CONTROL FOR STRESS PERIOD   26   TIME STEP    8
 
 SOLVING FOR HEAD 
                                                   Max.-Head-Change                         Max.-Flux-Residual
  Residual-Control   Outer-Iter.   Inner-Iter.     Column Row Layer    Maximum-Head-Change  Column Row Layer    Maximum-Flux-Residual          L2-NORM 
          0                 1           2             4    7     1       0.1649597812E-01       4    7    1         0.8660618100E+00      0.2026281229E+01
          0                 2           2             4    7     1      -0.1604614473E-02       4    7    1        -0.8660655887E-01      0.2026283576E+00
          0                 3           1             4    7     1       0.1092682449E-03       4    7    1         0.6062458162E-02      0.1418397930E-01
          0                 4           1             4    7     1      -0.4347889153E-05       4    7    1        -0.2479548934E-03      0.5801250933E-03

    ------------------------------------------------
       NWT REQUIRED            4 OUTER ITERATIONS 
       AND A TOTAL OF          6 INNER ITERATIONS.
    ------------------------------------------------

 NO OUTPUT CONTROL FOR STRESS PERIOD   26   TIME STEP    9
 
 SOLVING FOR HEAD 
                                                   Max.-Head-Change                         Max.-Flux-Residual
  Residual-Control   Outer-Iter.   Inner-Iter.     Column Row Layer    Maximum-Head-Change  Column Row Layer    Maximum-Flux-Residual          L2-NORM 
          0                 1           2             4    7     1       0.1632619577E-01       4    7    1         0.8571025538E+00      0.2010088996E+01
          0                 2           2             4    7     1      -0.1588099154E-02       4    7    1        -0.8571062480E-01      0.2010091079E+00
          0                 3           1             4    7     1       0.1081436141E-03       4    7    1         0.5999742833E-02      0.1407063311E-01
          0                 4           1             4    7     1      -0.4303139170E-05       4    7    1        -0.2453898305E-03      0.5754915004E-03

    ------------------------------------------------
       NWT REQUIRED            4 OUTER ITERATIONS 
       AND A TOTAL OF          6 INNER ITERATIONS.
    ------------------------------------------------

 NO OUTPUT CONTROL FOR STRESS PERIOD   26   TIME STEP   10
 
 SOLVING FOR HEAD 
                                                   Max.-Head-Change                         Max.-Flux-Residual
  Residual-Control   Outer-Iter.   Inner-Iter.     Column Row Layer    Maximum-Head-Change  Column Row Layer    Maximum-Flux-Residual          L2-NORM 
          0                 1           2             4    7     1       0.1615895756E-01       4    7    1         0.8482776010E+00      0.1994129751E+01
          0                 2           2             4    7     1      -0.1571831314E-02       4    7    1        -0.8482812129E-01      0.1994131513E+00
          0                 3           1             4    7     1       0.1070358360E-03       4    7    1         0.5937967650E-02      0.1395891163E-01
          0                 4           1             4    7     1      -0.4259059460E-05       4    7    1        -0.2428632279E-03      0.5709246496E-03

    ------------------------------------------------
       NWT REQUIRED            4 OUTER ITERATIONS 
       AND A TOTAL OF          6 INNER ITERATIONS.
    ------------------------------------------------

 NO OUTPUT CONTROL FOR STRESS PERIOD   26   TIME STEP   11
 
 SOLVING FOR HEAD 
                                                   Max.-Head-Change                         Max.-Flux-Residual
  Residual-Control   Outer-Iter.   Inner-Iter.     Column Row Layer    Maximum-Head-Change  Column Row Layer    Maximum-Flux-Residual          L2-NORM 
          0                 1           2             4    7     1       0.1599421350E-01       4    7    1         0.8395845575E+00      0.1978400256E+01
          0                 2           2             4    7     1      -0.1555806090E-02       4    7    1        -0.8395880890E-01      0.1978401732E+00
          0                 3           1             4    7     1       0.1059445787E-03       4    7    1         0.5877115820E-02      0.1384879668E-01
          0                 4           1             4    7     1      -0.4215637244E-05       4    7    1        -0.2403743920E-03      0.5664155616E-03

    ------------------------------------------------
       NWT REQUIRED            4 OUTER ITERATIONS 
       AND A TOTAL OF          6 INNER ITERATIONS.
    ------------------------------------------------

 NO OUTPUT CONTROL FOR STRESS PERIOD   26   TIME STEP   12
 
 SOLVING FOR HEAD 
                                                   Max.-Head-Change                         Max.-Flux-Residual
  Residual-Control   Outer-Iter.   Inner-Iter.     Column Row Layer    Maximum-Head-Change  Column Row Layer    Maximum-Flux-Residual          L2-NORM 
          0                 1           2             4    7     1       0.1583218728E-01       4    7    1         0.8310354513E+00      0.1962901511E+01
          0                 2           2             4    7     1      -0.1540045240E-02       4    7    1        -0.8310389047E-01      0.1962902665E+00
          0                 3           1             4    7     1       0.1048713244E-03       4    7    1         0.5817271578E-02      0.1374032199E-01
          0                 4           1             4    7     1      -0.4172931466E-05       4    7    1        -0.2379267557E-03      0.5620891455E-03

    ------------------------------------------------
       NWT REQUIRED            4 OUTER ITERATIONS 
       AND A TOTAL OF          6 INNER ITERATIONS.
    ------------------------------------------------

 NO OUTPUT CONTROL FOR STRESS PERIOD   26   TIME STEP   13
 
 SOLVING FOR HEAD 
                                                   Max.-Head-Change                         Max.-Flux-Residual
  Residual-Control   Outer-Iter.   Inner-Iter.     Column Row Layer    Maximum-Head-Change  Column Row Layer    Maximum-Flux-Residual          L2-NORM 
          0                 1           2             4    7     1       0.1567241556E-01       4    7    1         0.8226053321E+00      0.1947613894E+01
          0                 2           2             4    7     1      -0.1524503695E-02       4    7    1        -0.8226087090E-01      0.1947614721E+00
          0                 3           1             4    7     1       0.1038130040E-03       4    7    1         0.5758260257E-02      0.1363328942E-01
          0                 4           1             4    7     1      -0.4130819747E-05       4    7    1        -0.2355131896E-03      0.5576034433E-03

    ------------------------------------------------
       NWT REQUIRED            4 OUTER ITERATIONS 
       AND A TOTAL OF          6 INNER ITERATIONS.
    ------------------------------------------------

 NO OUTPUT CONTROL FOR STRESS PERIOD   26   TIME STEP   14
 
 SOLVING FOR HEAD 
                                                   Max.-Head-Change                         Max.-Flux-Residual
  Residual-Control   Outer-Iter.   Inner-Iter.     Column Row Layer    Maximum-Head-Change  Column Row Layer    Maximum-Flux-Residual          L2-NORM 
          0                 1           2             4    7     1       0.1551526193E-01       4    7    1         0.8143140347E+00      0.1932546595E+01
          0                 2           2             4    7     1      -0.1509216822E-02       4    7    1        -0.8143173374E-01      0.1932547143E+00
          0                 3           1             4    7     1       0.1027720252E-03       4    7    1         0.5700220684E-02      0.1352781494E-01
          0                 4           1             4    7     1      -0.4089398333E-05       4    7    1        -0.2331393612E-03      0.5532987555E-03

    ------------------------------------------------
       NWT REQUIRED            4 OUTER ITERATIONS 
       AND A TOTAL OF          6 INNER ITERATIONS.
    ------------------------------------------------

 NO OUTPUT CONTROL FOR STRESS PERIOD   26   TIME STEP   15
 
 SOLVING FOR HEAD 
                                                   Max.-Head-Change                         Max.-Flux-Residual
  Residual-Control   Outer-Iter.   Inner-Iter.     Column Row Layer    Maximum-Head-Change  Column Row Layer    Maximum-Flux-Residual          L2-NORM 
          0                 1           2             4    7     1       0.1536040052E-01       4    7    1         0.8061438617E+00      0.1917687496E+01
          0                 2           2             4    7     1      -0.1494152921E-02       4    7    1        -0.8061470918E-01      0.1917687630E+00
          0                 3           1             4    7     1       0.1017462303E-03       4    7    1         0.5643029001E-02      0.1342378497E-01
          0                 4           1             4    7     1      -0.4048580648E-05       4    7    1        -0.2308002163E-03      0.5490345085E-03

    ------------------------------------------------
       NWT REQUIRED            4 OUTER ITERATIONS 
       AND A TOTAL OF          6 INNER ITERATIONS.
    ------------------------------------------------

 NO OUTPUT CONTROL FOR STRESS PERIOD   26   TIME STEP   16
 
 SOLVING FOR HEAD 
                                                   Max.-Head-Change                         Max.-Flux-Residual
  Residual-Control   Outer-Iter.   Inner-Iter.     Column Row Layer    Maximum-Head-Change  Column Row Layer    Maximum-Flux-Residual          L2-NORM 
          0                 1           2             4    7     1       0.1520792346E-01       4    7    1         0.7980998467E+00      0.1903038371E+01
          0                 2           2             4    7     1      -0.1479320955E-02       4    7    1        -0.7981030059E-01      0.1903038308E+00
          0                 3           1             4    7     1       0.1007362297E-03       4    7    1         0.5586720458E-02      0.1332124454E-01
          0                 4           1             4    7     1      -0.4008391906E-05       4    7    1        -0.2284971902E-03      0.5448462111E-03

    ------------------------------------------------
       NWT REQUIRED            4 OUTER ITERATIONS 
       AND A TOTAL OF          6 INNER ITERATIONS.
    ------------------------------------------------

 NO OUTPUT CONTROL FOR STRESS PERIOD   26   TIME STEP   17
 
 SOLVING FOR HEAD 
                                                   Max.-Head-Change                         Max.-Flux-Residual
  Residual-Control   Outer-Iter.   Inner-Iter.     Column Row Layer    Maximum-Head-Change  Column Row Layer    Maximum-Flux-Residual          L2-NORM 
          0                 1           2             4    7     1       0.1505764510E-01       4    7    1         0.7901721465E+00      0.1888588481E+01
          0                 2           2             4    7     1      -0.1464702866E-02       4    7    1        -0.7901752366E-01      0.1888588106E+00
          0                 3           1             4    7     1       0.9974079314E-04       4    7    1         0.5531226125E-02      0.1322009490E-01

    ------------------------------------------------
       NWT REQUIRED            3 OUTER ITERATIONS 
       AND A TOTAL OF          5 INNER ITERATIONS.
    ------------------------------------------------

 NO OUTPUT CONTROL FOR STRESS PERIOD   26   TIME STEP   18
 
 SOLVING FOR HEAD 
                                                   Max.-Head-Change                         Max.-Flux-Residual
  Residual-Control   Outer-Iter.   Inner-Iter.     Column Row Layer    Maximum-Head-Change  Column Row Layer    Maximum-Flux-Residual          L2-NORM 
          0                 1           2             4    7     1       0.1490974457E-01       4    7    1         0.7823703289E+00      0.1874341281E+01
          0                 2           2             4    7     1      -0.1450316077E-02       4    7    1        -0.7823733519E-01      0.1874340630E+00
          0                 3           1             4    7     1       0.9876110721E-04       4    7    1         0.5476612963E-02      0.1312036177E-01

    ------------------------------------------------
       NWT REQUIRED            3 OUTER ITERATIONS 
       AND A TOTAL OF          5 INNER ITERATIONS.
    ------------------------------------------------

 NO OUTPUT CONTROL FOR STRESS PERIOD   26   TIME STEP   19
 
 SOLVING FOR HEAD 
                                                   Max.-Head-Change                         Max.-Flux-Residual
  Residual-Control   Outer-Iter.   Inner-Iter.     Column Row Layer    Maximum-Head-Change  Column Row Layer    Maximum-Flux-Residual          L2-NORM 
          0                 1           2             4    7     1       0.1476394985E-01       4    7    1         0.7746799535E+00      0.1860282647E+01
          0                 2           2             4    7     1      -0.1436134129E-02       4    7    1        -0.7746829106E-01      0.1860281706E+00
          0                 3           1             4    7     1       0.9779536997E-04       4    7    1         0.5422779911E-02      0.1302194388E-01

    ------------------------------------------------
       NWT REQUIRED            3 OUTER ITERATIONS 
       AND A TOTAL OF          5 INNER ITERATIONS.
    ------------------------------------------------

 NO OUTPUT CONTROL FOR STRESS PERIOD   26   TIME STEP   20
 
 SOLVING FOR HEAD 
                                                   Max.-Head-Change                         Max.-Flux-Residual
  Residual-Control   Outer-Iter.   Inner-Iter.     Column Row Layer    Maximum-Head-Change  Column Row Layer    Maximum-Flux-Residual          L2-NORM 
          0                 1           2             4    7     1       0.1462035850E-01       4    7    1         0.7671060719E+00      0.1846418916E+01
          0                 2           2             4    7     1      -0.1422166511E-02       4    7    1        -0.7671089650E-01      0.1846417854E+00
          0                 3           1             4    7     1       0.9684422790E-04       4    7    1         0.5369762336E-02      0.1292492352E-01

    ------------------------------------------------
       NWT REQUIRED            3 OUTER ITERATIONS 
       AND A TOTAL OF          5 INNER ITERATIONS.
    ------------------------------------------------

 NO OUTPUT CONTROL FOR STRESS PERIOD   26   TIME STEP   21
 
 SOLVING FOR HEAD 
                                                   Max.-Head-Change                         Max.-Flux-Residual
  Residual-Control   Outer-Iter.   Inner-Iter.     Column Row Layer    Maximum-Head-Change  Column Row Layer    Maximum-Flux-Residual          L2-NORM 
          0                 1           2             4    7     1       0.1447892457E-01       4    7    1         0.7596464309E+00      0.1832748001E+01
          0                 2           2             4    7     1      -0.1408408754E-02       4    7    1        -0.7596492615E-01      0.1832749938E+00
          0                 3           1             4    7     1       0.9590737663E-04       4    7    1         0.5317544450E-02      0.1282924371E-01

    ------------------------------------------------
       NWT REQUIRED            3 OUTER ITERATIONS 
       AND A TOTAL OF          5 INNER ITERATIONS.
    ------------------------------------------------

 NO OUTPUT CONTROL FOR STRESS PERIOD   26   TIME STEP   22
 
 SOLVING FOR HEAD 
                                                   Max.-Head-Change                         Max.-Flux-Residual
  Residual-Control   Outer-Iter.   Inner-Iter.     Column Row Layer    Maximum-Head-Change  Column Row Layer    Maximum-Flux-Residual          L2-NORM 
          0                 1           2             4    7     1       0.1433946921E-01       4    7    1         0.7522913364E+00      0.1819252616E+01
          0                 2           2             4    7     1      -0.1394843459E-02       4    7    1        -0.7522941061E-01      0.1819251003E+00
          0                 3           1             4    7     1       0.9498363115E-04       4    7    1         0.5266058392E-02      0.1273472480E-01

    ------------------------------------------------
       NWT REQUIRED            3 OUTER ITERATIONS 
       AND A TOTAL OF          5 INNER ITERATIONS.
    ------------------------------------------------

 NO OUTPUT CONTROL FOR STRESS PERIOD   26   TIME STEP   23
 
 SOLVING FOR HEAD 
                                                   Max.-Head-Change                         Max.-Flux-Residual
  Residual-Control   Outer-Iter.   Inner-Iter.     Column Row Layer    Maximum-Head-Change  Column Row Layer    Maximum-Flux-Residual          L2-NORM 
          0                 1           2             4    7     1       0.1420222597E-01       4    7    1         0.7450534512E+00      0.1805950835E+01
          0                 2           2             4    7     1      -0.1384292213E-02       4    7    1        -0.7468271505E-01      0.1806475464E+00
          0                 3           1             4    7     1       0.9426512743E-04       4    7    1         0.5227789478E-02      0.1264529817E-01

    ------------------------------------------------
       NWT REQUIRED            3 OUTER ITERATIONS 
       AND A TOTAL OF          5 INNER ITERATIONS.
    ------------------------------------------------

 NO OUTPUT CONTROL FOR STRESS PERIOD   26   TIME STEP   24
 
 SOLVING FOR HEAD 
                                                   Max.-Head-Change                         Max.-Flux-Residual
  Residual-Control   Outer-Iter.   Inner-Iter.     Column Row Layer    Maximum-Head-Change  Column Row Layer    Maximum-Flux-Residual          L2-NORM 
          0                 1           2             4    7     1       0.1406086560E-01       4    7    1         0.7377663680E+00      0.1792774203E+01
          0                 2           2             4    7     1      -0.1367743085E-02       4    7    1        -0.7377692533E-01      0.1792772284E+00
          0                 3           1             4    7     1       0.9313819451E-04       4    7    1         0.5164384268E-02      0.1254937311E-01

    ------------------------------------------------
       NWT REQUIRED            3 OUTER ITERATIONS 
       AND A TOTAL OF          5 INNER ITERATIONS.
    ------------------------------------------------

 NO OUTPUT CONTROL FOR STRESS PERIOD   26   TIME STEP   25
 
 SOLVING FOR HEAD 
                                                   Max.-Head-Change                         Max.-Flux-Residual
  Residual-Control   Outer-Iter.   Inner-Iter.     Column Row Layer    Maximum-Head-Change  Column Row Layer    Maximum-Flux-Residual          L2-NORM 
          0                 1           2             4    7     1       0.1392476233E-01       4    7    1         0.7305789096E+00      0.1779770384E+01
          0                 2           2             4    7     1      -0.1354503845E-02       4    7    1        -0.7305817251E-01      0.1779768163E+00
          0                 3           1             4    7     1       0.9223665253E-04       4    7    1         0.5114071621E-02      0.1245834581E-01

    ------------------------------------------------
       NWT REQUIRED            3 OUTER ITERATIONS 
       AND A TOTAL OF          5 INNER ITERATIONS.
    ------------------------------------------------

 NO OUTPUT CONTROL FOR STRESS PERIOD   26   TIME STEP   26
 
 SOLVING FOR HEAD 
                                                   Max.-Head-Change                         Max.-Flux-Residual
  Residual-Control   Outer-Iter.   Inner-Iter.     Column Row Layer    Maximum-Head-Change  Column Row Layer    Maximum-Flux-Residual          L2-NORM 
          0                 1           2             4    7     1       0.1379070603E-01       4    7    1         0.7235002016E+00      0.1766937225E+01
          0                 2           2             4    7     1      -0.1341463721E-02       4    7    1        -0.7235029492E-01      0.1766934879E+00
          0                 3           1             4    7     1       0.9134866968E-04       4    7    1         0.5064520246E-02      0.1236850643E-01

    ------------------------------------------------
       NWT REQUIRED            3 OUTER ITERATIONS 
       AND A TOTAL OF          5 INNER ITERATIONS.
    ------------------------------------------------

 NO OUTPUT CONTROL FOR STRESS PERIOD   26   TIME STEP   27
 
 SOLVING FOR HEAD 
                                                   Max.-Head-Change                         Max.-Flux-Residual
  Residual-Control   Outer-Iter.   Inner-Iter.     Column Row Layer    Maximum-Head-Change  Column Row Layer    Maximum-Flux-Residual          L2-NORM 
          0                 1           2             4    7     1       0.1365891810E-01       4    7    1         0.7165422504E+00      0.1754282479E+01
          0                 2           2             4    7     1      -0.1328644253E-02       4    7    1        -0.7165449323E-01      0.1754279852E+00
          0                 3           1             4    7     1       0.9047571179E-04       4    7    1         0.5015814154E-02      0.1227991981E-01

    ------------------------------------------------
       NWT REQUIRED            3 OUTER ITERATIONS 
       AND A TOTAL OF          5 INNER ITERATIONS.
    ------------------------------------------------

 NO OUTPUT CONTROL FOR STRESS PERIOD   26   TIME STEP   28
 
 SOLVING FOR HEAD 
                                                   Max.-Head-Change                         Max.-Flux-Residual
  Residual-Control   Outer-Iter.   Inner-Iter.     Column Row Layer    Maximum-Head-Change  Column Row Layer    Maximum-Flux-Residual          L2-NORM 
          0                 1           2             4    7     1       0.1352907048E-01       4    7    1         0.7096872852E+00      0.1741791380E+01
          0                 2           2             4    7     1      -0.1316013525E-02       4    7    1        -0.7096899032E-01      0.1741788496E+00
          0                 3           1             4    7     1       0.8961560692E-04       4    7    1         0.4967828974E-02      0.1219247002E-01

    ------------------------------------------------
       NWT REQUIRED            3 OUTER ITERATIONS 
       AND A TOTAL OF          5 INNER ITERATIONS.
    ------------------------------------------------

 NO OUTPUT CONTROL FOR STRESS PERIOD   26   TIME STEP   29
 
 SOLVING FOR HEAD 
                                                   Max.-Head-Change                         Max.-Flux-Residual
  Residual-Control   Outer-Iter.   Inner-Iter.     Column Row Layer    Maximum-Head-Change  Column Row Layer    Maximum-Flux-Residual          L2-NORM 
          0                 1           2             4    7     1       0.1340138691E-01       4    7    1         0.7029475474E+00      0.1729469488E+01
          0                 2           2             4    7     1      -0.1303593304E-02       4    7    1        -0.7029501038E-01      0.1729466432E+00
          0                 3           1             4    7     1       0.8876983712E-04       4    7    1         0.4920650450E-02      0.1210621379E-01

    ------------------------------------------------
       NWT REQUIRED            3 OUTER ITERATIONS 
       AND A TOTAL OF          5 INNER ITERATIONS.
    ------------------------------------------------

 NO OUTPUT CONTROL FOR STRESS PERIOD   26   TIME STEP   30



 STREAM LISTING     PERIOD     26   STEP       30

 LAYER ROW COL. STREAM  RCH.  FLOW INTO     FLOW TO   FLOW OUT OF   OVRLND.     DIRECT     STREAM       STREAM     STREAM     STREAM   STREAMBED  STREAMBED
                SEG.NO.  NO.  STRM. RCH.    AQUIFER    STRM. RCH.    RUNOFF     PRECIP       ET          HEAD       DEPTH      WIDTH   CONDCTNC.   GRADIENT

   1    1    1     1     1    8.2501E+00  1.3178E-01   8.1183E+00  0.000E+00  0.000E+00  0.000E+00  1.09389E+03  8.424E-01  7.622E+00  3.430E-02  1.281E+00
   1    2    2     1     2    8.1183E+00  2.0241E-01   7.9159E+00  0.000E+00  0.000E+00  0.000E+00  1.08890E+03  8.367E-01  7.537E+00  5.276E-02  1.279E+00
   1    3    3     1     3    7.9159E+00  1.7099E-01   7.7449E+00  0.000E+00  0.000E+00  0.000E+00  1.08325E+03  8.302E-01  7.440E+00  4.464E-02  1.277E+00
   1    3    4     1     4    7.7449E+00  1.5612E-01   7.5888E+00  0.000E+00  0.000E+00  0.000E+00  1.07823E+03  8.244E-01  7.355E+00  4.082E-02  1.275E+00
   1    4    5     2     1    5.5888E+00  2.7178E-01   5.3170E+00  0.000E+00  0.000E+00  0.000E+00  1.07242E+03  4.843E-01  1.200E+01  7.800E-02  1.161E+00
   1    5    6     2     2    5.3170E+00  2.0828E-01   5.1088E+00  0.000E+00  0.000E+00  0.000E+00  1.06698E+03  4.714E-01  1.200E+01  6.000E-02  1.157E+00
   1    6    6     2     3    5.1088E+00  2.0760E-01   4.9012E+00  0.000E+00  0.000E+00  0.000E+00  1.06225E+03  4.600E-01  1.200E+01  6.000E-02  1.153E+00
   1    7    6     2     4    4.9012E+00  2.0691E-01   4.6943E+00  0.000E+00  0.000E+00  0.000E+00  1.05752E+03  4.485E-01  1.200E+01  6.000E-02  1.150E+00
   1    8    6     2     5    4.6943E+00  2.0621E-01   4.4880E+00  0.000E+00  0.000E+00  0.000E+00  1.05280E+03  4.368E-01  1.200E+01  6.000E-02  1.146E+00
   1    3    5     3     1    2.0000E+00  2.8252E-01   1.7175E+00  0.000E+00  0.000E+00  0.000E+00  1.07555E+03  1.909E+00  9.636E+00  7.227E-02  1.955E+00
   1    3    6     3     2    1.7175E+00  2.4905E-01   1.4684E+00  0.000E+00  0.000E+00  0.000E+00  1.07264E+03  1.727E+00  8.909E+00  6.682E-02  1.864E+00
   1    3    7     3     3    1.4684E+00  1.9718E-01   1.2712E+00  0.000E+00  0.000E+00  0.000E+00  1.06987E+03  1.555E+00  8.218E+00  5.547E-02  1.777E+00
   1    4    8     3     4    1.2712E+00  2.2567E-01   1.0456E+00  0.000E+00  0.000E+00  0.000E+00  1.06682E+03  1.364E+00  7.455E+00  6.709E-02  1.682E+00
   1    5    8     3     5    1.0456E+00  1.5790E-01   8.8768E-01  0.000E+00  0.000E+00  0.000E+00  1.06362E+03  1.164E+00  6.655E+00  4.991E-02  1.582E+00
   1    6    8     3     6    8.8768E-01  5.5980E-02   8.3170E-01  0.000E+00  0.000E+00  0.000E+00  1.06158E+03  1.036E+00  6.145E+00  1.844E-02  1.518E+00
   1    5   10     4     1    1.0000E+01  9.0919E-02   9.9091E+00  0.000E+00  0.000E+00  0.000E+00  1.07836E+03  6.368E-01  1.000E+01  2.500E-02  1.212E+00
   1    5    9     4     2    9.9091E+00  1.8158E-01   9.7275E+00  0.000E+00  0.000E+00  0.000E+00  1.07154E+03  6.315E-01  1.000E+01  5.000E-02  1.211E+00
   1    6    8     4     3    9.7275E+00  1.2689E-01   9.6006E+00  0.000E+00  0.000E+00  0.000E+00  1.06381E+03  6.256E-01  1.000E+01  3.500E-02  1.209E+00
   1    6    8     5     1    1.0432E+01  2.2686E-01   1.0205E+01  0.000E+00  0.000E+00  0.000E+00  1.05868E+03  6.790E-01  1.542E+01  6.166E-02  1.226E+00
   1    7    7     5     2    1.0205E+01  2.7894E-01   9.9265E+00  0.000E+00  0.000E+00  0.000E+00  1.05417E+03  6.732E-01  1.519E+01  7.594E-02  1.224E+00
   1    8    7     5     3    9.9265E+00  1.9221E-01   9.7343E+00  0.000E+00  0.000E+00  0.000E+00  1.04992E+03  6.676E-01  1.497E+01  5.241E-02  1.223E+00
   1    8    6     5     4    9.7343E+00  1.3577E-01   9.5985E+00  0.000E+00  0.000E+00  0.000E+00  1.04691E+03  6.637E-01  1.482E+01  3.706E-02  1.221E+00
   1    9    6     6     1    1.4087E+01  2.3167E-01   1.3855E+01  0.000E+00  0.000E+00  0.000E+00  1.04359E+03  8.612E-01  1.200E+01  6.000E-02  1.287E+00
   1   10    7     6     2    1.3855E+01  2.3116E-01   1.3624E+01  0.000E+00  0.000E+00  0.000E+00  1.03903E+03  8.526E-01  1.200E+01  6.000E-02  1.284E+00
   1   11    7     6     3    1.3624E+01  2.3064E-01   1.3393E+01  0.000E+00  0.000E+00  0.000E+00  1.03448E+03  8.440E-01  1.200E+01  6.000E-02  1.281E+00
   1   12    7     6     4    1.3393E+01  2.3012E-01   1.3163E+01  0.000E+00  0.000E+00  0.000E+00  1.02993E+03  8.353E-01  1.200E+01  6.000E-02  1.278E+00
   1   13    7     6     5    1.3163E+01  3.4957E-03   1.3159E+01  0.000E+00  0.000E+00  0.000E+00  1.02674E+03  8.309E-01  1.200E+01  2.400E-02  4.855E-02
   1   14    9     7     1    1.5000E+02  1.3827E+00   1.4862E+02  0.000E+00  0.000E+00  0.000E+00  1.03987E+03  2.288E+00  5.529E+01  5.593E-01  8.241E-01
   1   13    8     7     2    1.4862E+02  1.9860E+00   1.4663E+02  0.000E+00  0.000E+00  0.000E+00  1.03478E+03  2.279E+00  5.525E+01  6.147E-01  1.077E+00
   1   13    7     7     3    1.4663E+02  1.7274E+00   1.4490E+02  0.000E+00  0.000E+00  0.000E+00  1.02969E+03  2.269E+00  5.521E+01  5.584E-01  1.031E+00
   1   13    6     8     1    1.5806E+02  1.1100E+00   1.5695E+02  0.000E+00  0.000E+00  0.000E+00  1.02474E+03  2.869E+00  4.160E+01  4.239E-01  8.729E-01
   1   13    5     8     2    1.5695E+02  3.6249E-01   1.5659E+02  0.000E+00  0.000E+00  0.000E+00  1.01849E+03  2.864E+00  4.153E+01  4.232E-01  2.855E-01
   1   13    4     8     3    1.5659E+02 -1.7807E+00   1.5837E+02  0.000E+00  0.000E+00  0.000E+00  1.01224E+03  2.869E+00  4.160E+01  4.239E+00 -1.400E-01
   1   13    3     8     4    1.5837E+02 -3.3256E+00   1.6170E+02  0.000E+00  0.000E+00  0.000E+00  1.00601E+03  2.886E+00  4.185E+01  4.264E+00 -2.599E-01
   1   13    2     8     5    1.6170E+02 -2.4992E+00   1.6420E+02  0.000E+00  0.000E+00  0.000E+00  9.99781E+02  2.906E+00  4.213E+01  4.293E+00 -1.940E-01
   1   13    1     8     6    1.6420E+02 -1.9588E+00   1.6616E+02  0.000E+00  0.000E+00  0.000E+00  9.94796E+02  2.921E+00  4.235E+01  2.589E+00 -2.522E-01
   1    8    6     9     1    0.0000E+00  0.0000E+00   0.0000E+00  0.000E+00  0.000E+00  0.000E+00  1.07875E+03  0.000E+00  4.000E+00  0.000E+00  1.000E+00
   1    8    5     9     2    0.0000E+00  0.0000E+00   0.0000E+00  0.000E+00  0.000E+00  0.000E+00  1.07825E+03  0.000E+00  4.000E+00  0.000E+00  1.000E+00





UNSATURATED ZONE PACKAGE VOLUMETRIC BUDGET FOR  TIME STEP    30 STRESS PERIOD   26
  ------------------------------------------------------------------------------



     CUMULATIVE VOLUMES      L**3       RATES FOR THIS TIME STEP      L**3/T
     ------------------                 ------------------------

           IN:                                      IN:
           ---                                      ---
        INFILTRATION =  1117265089.1263          INFILTRATION =           0.8475

          OUT:                                     OUT:
          ----                                     ----
              UZF ET =   864266840.5717                UZF ET =           0.7500
        UZF RECHARGE =       73224.0000          UZF RECHARGE =       0.0000E+00

            IN - OUT =   252925024.5546              IN - OUT =       9.7500E-02

          STORAGE:                                 STORAGE:
          --------                                 --------
      STORAGE CHANGE =   252929263.1009        STORAGE CHANGE =       9.7500E-02

 PERCENT DISCREPANCY IS DIFFERENCE BETWEEN IN-OUT MINUS CHANGE IN STORAGE
 DIVIDED BY THE AVERAGE OF IN AND OUT TIMES 100

 PERCENT DISCREPANCY =          -0.00     PERCENT DISCREPANCY =           0.00






1
  VOLUMETRIC BUDGET FOR AGRICULTURAL FIELDS AT  END OF TIME STEP   30, STRESS PERIOD  26
  ------------------------------------------------------------------------------

     CUMULATIVE VOLUMES      L**3       RATES FOR THIS TIME STEP      L**3/T
     ------------------                 ------------------------

           IN:                                      IN:
           ---                                      ---
               AG WELLS  =   697628416.0000                 AG WELLS  =           0.0000
      DIVERSION SEGMENTS =   363935712.0000        DIVERSION SEGMENTS =           0.0000
       IRRIGATION PONDS  =           0.0000         IRRIGATION PONDS  =           0.0000
           GW IRRIGATION =           0.0000             GW IRRIGATION =           0.0000
           SW IRRIGATION =           0.0000             SW IRRIGATION =           0.0000
        SYSTEM LOSSES GW =           0.0000          SYSTEM LOSSES GW =           0.0000
        SYSTEM LOSSES SW =           0.0000          SYSTEM LOSSES SW =           0.0000

                TOTAL IN =  1061564160.0000                  TOTAL IN =           0.0000

          OUT:                                     OUT:
          ----                                     ----
               AG WELLS  =           0.0000                 AG WELLS  =           0.0000
      DIVERSION SEGMENTS =           0.0000        DIVERSION SEGMENTS =           0.0000
       IRRIGATION PONDS  =           0.0000         IRRIGATION PONDS  =           0.0000
           GW IRRIGATION =   697628416.0000             GW IRRIGATION =           0.0000
           SW IRRIGATION =   363942752.0000             SW IRRIGATION =           0.0000
        SYSTEM LOSSES GW =           0.0000          SYSTEM LOSSES GW =           0.0000
        SYSTEM LOSSES SW =           0.0000          SYSTEM LOSSES SW =           0.0000

               TOTAL OUT =  1061571200.0000                 TOTAL OUT =           0.0000

                IN - OUT =       -7040.0000                  IN - OUT =           0.0000

     PERCENT DISCREPANCY =          -0.00         PERCENT DISCREPANCY =           0.00



1
  VOLUMETRIC BUDGET FOR ENTIRE MODEL AT END OF TIME STEP   30, STRESS PERIOD  26
  ------------------------------------------------------------------------------

     CUMULATIVE VOLUMES      L**3       RATES FOR THIS TIME STEP      L**3/T
     ------------------                 ------------------------

           IN:                                      IN:
           ---                                      ---
             STORAGE     =  1089566336.0000               STORAGE     =           4.3051
       CONSTANT HEAD     =           0.0000         CONSTANT HEAD     =           0.0000
     HEAD DEP BOUNDS     =    18973126.0000       HEAD DEP BOUNDS     =           0.2889
      STREAM LEAKAGE     =   775453120.0000        STREAM LEAKAGE     =          11.6593
        UZF RECHARGE     =       73223.9531          UZF RECHARGE     =           0.0000
               GW ET     =           0.0000                 GW ET     =           0.0000
     SURFACE LEAKAGE     =           0.0000       SURFACE LEAKAGE     =           0.0000
           AG WELLS      =           0.0000             AG WELLS      =           0.0000

                TOTAL IN =  1884065792.0000                  TOTAL IN =          16.2534

          OUT:                                     OUT:
          ----                                     ----
             STORAGE     =   505420384.0000               STORAGE     =           6.4027
       CONSTANT HEAD     =           0.0000         CONSTANT HEAD     =           0.0000
     HEAD DEP BOUNDS     =    18947156.0000       HEAD DEP BOUNDS     =           0.2870
      STREAM LEAKAGE     =   662076288.0000        STREAM LEAKAGE     =           9.5643
        UZF RECHARGE     =           0.0000          UZF RECHARGE     =           0.0000
               GW ET     =           0.0000                 GW ET     =           0.0000
     SURFACE LEAKAGE     =           0.0000       SURFACE LEAKAGE     =           0.0000
           AG WELLS      =   697628416.0000             AG WELLS      =           0.0000

               TOTAL OUT =  1884072192.0000                 TOTAL OUT =          16.2540

                IN - OUT =       -6400.0000                  IN - OUT =      -5.9700E-04

     PERCENT DISCREPANCY =          -0.00         PERCENT DISCREPANCY =          -0.00






         TIME SUMMARY AT END OF TIME STEP   30 IN STRESS PERIOD   26
                    SECONDS     MINUTES      HOURS       DAYS        YEARS
                    -----------------------------------------------------------
   TIME STEP LENGTH  87667.      1461.1      24.352      1.0147     2.77799E-03
 STRESS PERIOD TIME 2.63000E+06  43833.      730.56      30.440     8.33397E-02
         TOTAL TIME 6.58368E+07 1.09728E+06  18288.      762.00      2.0862    
1
1
                            STRESS PERIOD NO.   27, LENGTH =   2630000.    
                            -----------------------------------------------

                              NUMBER OF TIME STEPS =    30

                               MULTIPLIER FOR DELT =     1.000

                            INITIAL TIME STEP SIZE =   87666.66    

 REUSING NON-PARAMETER GHB CELLS FROM LAST STRESS PERIOD

      2 GHB CELLS

 REUSING STREAM SEGMENT DATA FROM LAST STRESS PERIOD



            AREAL INFILTRATION RATE
 READING ON UNIT   19 WITH FORMAT: (FREE)              

            1           2           3           4           5           6           7           8           9          10
 ........................................................................................................................
   1   1.0000E-10  2.0000E-10   0.000       0.000       0.000       0.000       0.000       0.000       0.000       0.000    
   2   2.0000E-10  1.0000E-10  2.0000E-10   0.000       0.000      8.0000E-10  8.0000E-10  5.0000E-10   0.000       0.000    
   3    0.000      5.0000E-10  1.0000E-10  1.0000E-10  8.0000E-10  8.0000E-10  5.0000E-10  5.0000E-10   0.000       0.000    
   4   8.0000E-10  5.0000E-10  1.0000E-10  1.0000E-10  1.0000E-10  1.0000E-10  1.0000E-10  1.0000E-10  2.0000E-10   0.000    
   5   8.0000E-10  5.0000E-10  1.0000E-10  1.0000E-10  1.0000E-10  1.0000E-10  1.0000E-10  1.0000E-10  1.0000E-10  1.0000E-10
   6   8.0000E-10  5.0000E-10  5.0000E-10  2.0000E-10  2.0000E-10  1.0000E-10  1.0000E-10  1.0000E-10  1.0000E-10  5.0000E-10
   7   8.0000E-10  5.0000E-10  5.0000E-10  2.0000E-10  2.0000E-10  1.0000E-10  1.0000E-10  2.0000E-10  2.0000E-10   0.000    
   8    0.000      5.0000E-10  5.0000E-10  2.0000E-10  2.0000E-10  1.0000E-10  1.0000E-10  2.0000E-10  5.0000E-10   0.000    
   9    0.000      5.0000E-10  5.0000E-10  2.0000E-10  2.0000E-10  1.0000E-10  1.0000E-10  2.0000E-10  5.0000E-10   0.000    
  10    0.000      5.0000E-10  5.0000E-10  2.0000E-10  2.0000E-10  1.0000E-10  1.0000E-10  2.0000E-10  5.0000E-10  8.0000E-10
  11    0.000      1.0000E-10  1.0000E-10  1.0000E-10  1.0000E-10  1.0000E-10  1.0000E-10  2.0000E-10  5.0000E-10   0.000    
  12   1.0000E-10  1.0000E-10  1.0000E-10  1.0000E-10  1.0000E-10  1.0000E-10  1.0000E-10  1.0000E-10  2.0000E-10   0.000    
  13   1.0000E-10  1.0000E-10  2.0000E-10  2.0000E-10  2.0000E-10  2.0000E-10  2.0000E-10  1.0000E-10  1.0000E-10   0.000    
  14    0.000      2.0000E-10  5.0000E-10  5.0000E-10  5.0000E-10  5.0000E-10  5.0000E-10  2.0000E-10  1.0000E-10   0.000    
  15    0.000       0.000      8.0000E-10  8.0000E-10  8.0000E-10  8.0000E-10   0.000       0.000       0.000       0.000    

                  ET RATE =  5.000000E-10

 USING ET EXTINCTION DEPTH FROM PREVIOUS STRESS PERIOD. CURRENT PERIOD IS:      27

 USING EXTINCTION WATER CONTENT FROM PREVIOUS STRESS PERIOD. CURRENT PERIOD IS:      27

 USING AIR ENTRY PRESSURE FROM PREVIOUS STRESS PERIOD. CURRENT PERIOD IS:      27

 USING ROOT PRESSURE HEAD FROM PREVIOUS STRESS PERIOD. CURRENT PERIOD IS:      27

 USING ROOT ACTIVITY FROM PREVIOUS STRESS PERIOD. CURRENT PERIOD IS:      27

 PROCESSING AG STRESS PERIOD DATA

 READING AG STRESS PERIOD DATA

 READING IRRIGATION SEGMENT

 READING IRRIGATION WELL

 READING SUPPLEMENTAL WELL

 NO IRRPOND OR REUSING IRRPOND DATA FROM LAST STRESS PERIOD

 END PROCESSING AG STRESS PERIOD DATA OPTIONS
 
 SOLVING FOR HEAD 
                                                   Max.-Head-Change                         Max.-Flux-Residual
  Residual-Control   Outer-Iter.   Inner-Iter.     Column Row Layer    Maximum-Head-Change  Column Row Layer    Maximum-Flux-Residual          L2-NORM 
          0                 1           2             4    7     1       0.1327567366E-01       4    7    1         0.6963126984E+00      0.1717302512E+01
          0                 2           2             4    7     1      -0.1291364745E-02       4    7    1        -0.6963151947E-01      0.1717299226E+00
          0                 3           1             4    7     1       0.8793711831E-04       4    7    1         0.4874206108E-02      0.1202104038E-01

    ------------------------------------------------
       NWT REQUIRED            3 OUTER ITERATIONS 
       AND A TOTAL OF          5 INNER ITERATIONS.
    ------------------------------------------------

 NO OUTPUT CONTROL FOR STRESS PERIOD   27   TIME STEP    1
 
 SOLVING FOR HEAD 
                                                   Max.-Head-Change                         Max.-Flux-Residual
  Residual-Control   Outer-Iter.   Inner-Iter.     Column Row Layer    Maximum-Head-Change  Column Row Layer    Maximum-Flux-Residual          L2-NORM 
          0                 1           2             4    7     1       0.1315176784E-01       4    7    1         0.6897726939E+00      0.1704221315E+01
          0                 2           2             4    7     1      -0.1279312001E-02       4    7    1        -0.6897751318E-01      0.1704215311E+00
          0                 3           1             4    7     1       0.8711637185E-04       4    7    1         0.4828425690E-02      0.1192942364E-01

    ------------------------------------------------
       NWT REQUIRED            3 OUTER ITERATIONS 
       AND A TOTAL OF          5 INNER ITERATIONS.
    ------------------------------------------------

 NO OUTPUT CONTROL FOR STRESS PERIOD   27   TIME STEP    2
 
 SOLVING FOR HEAD 
                                                   Max.-Head-Change                         Max.-Flux-Residual
  Residual-Control   Outer-Iter.   Inner-Iter.     Column Row Layer    Maximum-Head-Change  Column Row Layer    Maximum-Flux-Residual          L2-NORM 
          0                 1           2             4    7     1       0.1302996439E-01       4    7    1         0.6833410289E+00      0.1714037232E+01
          0                 2           2             4    7     1      -0.1267463761E-02       4    7    1        -0.6833434094E-01      0.1712907929E+00
          0                 3           1             4    7     1       0.8630955124E-04       4    7    1         0.4783403660E-02      0.1198014202E-01

    ------------------------------------------------
       NWT REQUIRED            3 OUTER ITERATIONS 
       AND A TOTAL OF          5 INNER ITERATIONS.
    ------------------------------------------------

 NO OUTPUT CONTROL FOR STRESS PERIOD   27   TIME STEP    3
 
 SOLVING FOR HEAD 
                                                   Max.-Head-Change                         Max.-Flux-Residual
  Residual-Control   Outer-Iter.   Inner-Iter.     Column Row Layer    Maximum-Head-Change  Column Row Layer    Maximum-Flux-Residual          L2-NORM 
          0                 1           2             4    7     1       0.1291007470E-01       4    7    1         0.6770110552E+00      0.1699164359E+01
          0                 2           2             4    7     1      -0.1255801682E-02       4    7    1        -0.6770133801E-01      0.1698203595E+00
          0                 3           1             4    7     1       0.8551540793E-04       4    7    1         0.4739093506E-02      0.1187697299E-01

    ------------------------------------------------
       NWT REQUIRED            3 OUTER ITERATIONS 
       AND A TOTAL OF          5 INNER ITERATIONS.
    ------------------------------------------------

 NO OUTPUT CONTROL FOR STRESS PERIOD   27   TIME STEP    4
 
 SOLVING FOR HEAD 
                                                   Max.-Head-Change                         Max.-Flux-Residual
  Residual-Control   Outer-Iter.   Inner-Iter.     Column Row Layer    Maximum-Head-Change  Column Row Layer    Maximum-Flux-Residual          L2-NORM 
          0                 1           2             4    7     1       0.1279217870E-01       4    7    1         0.6707876214E+00      0.1684939562E+01
          0                 2           2             4    7     1      -0.1244333536E-02       4    7    1        -0.6707898926E-01      0.1684120906E+00
          0                 3           1             4    7     1       0.8473447062E-04       4    7    1         0.4695529135E-02      0.1178128285E-01

    ------------------------------------------------
       NWT REQUIRED            3 OUTER ITERATIONS 
       AND A TOTAL OF          5 INNER ITERATIONS.
    ------------------------------------------------

 NO OUTPUT CONTROL FOR STRESS PERIOD   27   TIME STEP    5
 
 SOLVING FOR HEAD 
                                                   Max.-Head-Change                         Max.-Flux-Residual
  Residual-Control   Outer-Iter.   Inner-Iter.     Column Row Layer    Maximum-Head-Change  Column Row Layer    Maximum-Flux-Residual          L2-NORM 
          0                 1           2             4    7     1       0.1267595677E-01       4    7    1         0.6646529275E+00      0.1671281414E+01
          0                 2           2             4    7     1      -0.1233028234E-02       4    7    1        -0.6646551464E-01      0.1670583452E+00
          0                 3           1             4    7     1       0.8396462217E-04       4    7    1         0.4652585937E-02      0.1168760567E-01

    ------------------------------------------------
       NWT REQUIRED            3 OUTER ITERATIONS 
       AND A TOTAL OF          5 INNER ITERATIONS.
    ------------------------------------------------

 NO OUTPUT CONTROL FOR STRESS PERIOD   27   TIME STEP    6
 
 SOLVING FOR HEAD 
                                                   Max.-Head-Change                         Max.-Flux-Residual
  Residual-Control   Outer-Iter.   Inner-Iter.     Column Row Layer    Maximum-Head-Change  Column Row Layer    Maximum-Flux-Residual          L2-NORM 
          0                 1           2             4    7     1       0.1256164048E-01       4    7    1         0.6586196606E+00      0.1658128156E+01
          0                 2           2             4    7     1      -0.1221908301E-02       4    7    1        -0.6586218289E-01      0.1657534995E+00
          0                 3           1             4    7     1       0.8320739645E-04       4    7    1         0.4610352737E-02      0.1159726144E-01

    ------------------------------------------------
       NWT REQUIRED            3 OUTER ITERATIONS 
       AND A TOTAL OF          5 INNER ITERATIONS.
    ------------------------------------------------

 NO OUTPUT CONTROL FOR STRESS PERIOD   27   TIME STEP    7
 
 SOLVING FOR HEAD 
                                                   Max.-Head-Change                         Max.-Flux-Residual
  Residual-Control   Outer-Iter.   Inner-Iter.     Column Row Layer    Maximum-Head-Change  Column Row Layer    Maximum-Flux-Residual          L2-NORM 
          0                 1           2             4    7     1       0.1244904429E-01       4    7    1         0.6526778833E+00      0.1645418929E+01
          0                 2           2             4    7     1      -0.1210955690E-02       4    7    1        -0.6526800023E-01      0.1644913989E+00
          0                 3           1             4    7     1       0.8246156501E-04       4    7    1         0.4568759978E-02      0.1151201776E-01

    ------------------------------------------------
       NWT REQUIRED            3 OUTER ITERATIONS 
       AND A TOTAL OF          5 INNER ITERATIONS.
    ------------------------------------------------

 NO OUTPUT CONTROL FOR STRESS PERIOD   27   TIME STEP    8
 
 SOLVING FOR HEAD 
                                                   Max.-Head-Change                         Max.-Flux-Residual
  Residual-Control   Outer-Iter.   Inner-Iter.     Column Row Layer    Maximum-Head-Change  Column Row Layer    Maximum-Flux-Residual          L2-NORM 
          0                 1           2             4    7     1       0.1233825888E-01       4    7    1         0.6468326052E+00      0.1633104269E+01
          0                 2           2             4    7     1      -0.1200179219E-02       4    7    1        -0.6468346767E-01      0.1632677262E+00
          0                 3           1             4    7     1       0.8172772817E-04       4    7    1         0.4527842740E-02      0.1142515915E-01

    ------------------------------------------------
       NWT REQUIRED            3 OUTER ITERATIONS 
       AND A TOTAL OF          5 INNER ITERATIONS.
    ------------------------------------------------

 NO OUTPUT CONTROL FOR STRESS PERIOD   27   TIME STEP    9
 
 SOLVING FOR HEAD 
                                                   Max.-Head-Change                         Max.-Flux-Residual
  Residual-Control   Outer-Iter.   Inner-Iter.     Column Row Layer    Maximum-Head-Change  Column Row Layer    Maximum-Flux-Residual          L2-NORM 
          0                 1           2             4    7     1       0.1222910571E-01       4    7    1         0.6410738973E+00      0.1621144567E+01
          0                 2           2             4    7     1      -0.1189561524E-02       4    7    1        -0.6410759224E-01      0.1620779897E+00
          0                 3           1             4    7     1       0.8100470293E-04       4    7    1         0.4487531475E-02      0.1134206008E-01

    ------------------------------------------------
       NWT REQUIRED            3 OUTER ITERATIONS 
       AND A TOTAL OF          5 INNER ITERATIONS.
    ------------------------------------------------

 NO OUTPUT CONTROL FOR STRESS PERIOD   27   TIME STEP   10
 
 SOLVING FOR HEAD 
                                                   Max.-Head-Change                         Max.-Flux-Residual
  Residual-Control   Outer-Iter.   Inner-Iter.     Column Row Layer    Maximum-Head-Change  Column Row Layer    Maximum-Flux-Residual          L2-NORM 
          0                 1           2             4    7     1       0.1212154682E-01       4    7    1         0.6353998188E+00      0.1609510969E+01
          0                 2           2             4    7     1      -0.1179098910E-02       4    7    1        -0.6354017989E-01      0.1609194985E+00
          0                 3           1             4    7     1       0.8029223863E-04       4    7    1         0.4447812642E-02      0.1126102021E-01

    ------------------------------------------------
       NWT REQUIRED            3 OUTER ITERATIONS 
       AND A TOTAL OF          5 INNER ITERATIONS.
    ------------------------------------------------

 NO OUTPUT CONTROL FOR STRESS PERIOD   27   TIME STEP   11
 
 SOLVING FOR HEAD 
                                                   Max.-Head-Change                         Max.-Flux-Residual
  Residual-Control   Outer-Iter.   Inner-Iter.     Column Row Layer    Maximum-Head-Change  Column Row Layer    Maximum-Flux-Residual          L2-NORM 
          0                 1           2             4    7     1       0.1201554146E-01       4    7    1         0.6298084005E+00      0.1598161527E+01
          0                 2           2             4    7     1      -0.1168787414E-02       4    7    1        -0.6298103368E-01      0.1597896726E+00
          0                 3           1             4    7     1       0.7959006465E-04       4    7    1         0.4408672434E-02      0.1118268976E-01

    ------------------------------------------------
       NWT REQUIRED            3 OUTER ITERATIONS 
       AND A TOTAL OF          5 INNER ITERATIONS.
    ------------------------------------------------

 NO OUTPUT CONTROL FOR STRESS PERIOD   27   TIME STEP   12
 
 SOLVING FOR HEAD 
                                                   Max.-Head-Change                         Max.-Flux-Residual
  Residual-Control   Outer-Iter.   Inner-Iter.     Column Row Layer    Maximum-Head-Change  Column Row Layer    Maximum-Flux-Residual          L2-NORM 
          0                 1           2             4    7     1       0.1191132509E-01       4    7    1         0.6243121620E+00      0.1587087213E+01
          0                 2           2             4    7     1      -0.1158649940E-02       4    7    1        -0.6243140559E-01      0.1586862793E+00
          0                 3           1             4    7     1       0.7889974055E-04       4    7    1         0.4370198481E-02      0.1110592966E-01

    ------------------------------------------------
       NWT REQUIRED            3 OUTER ITERATIONS 
       AND A TOTAL OF          5 INNER ITERATIONS.
    ------------------------------------------------

 NO OUTPUT CONTROL FOR STRESS PERIOD   27   TIME STEP   13
 
 SOLVING FOR HEAD 
                                                   Max.-Head-Change                         Max.-Flux-Residual
  Residual-Control   Outer-Iter.   Inner-Iter.     Column Row Layer    Maximum-Head-Change  Column Row Layer    Maximum-Flux-Residual          L2-NORM 
          0                 1           2             4    7     1       0.1180844251E-01       4    7    1         0.6188867317E+00      0.1576241825E+01
          0                 2           2             4    7     1      -0.1148642210E-02       4    7    1        -0.6188885843E-01      0.1576050430E+00
          0                 3           1             4    7     1       0.7821825170E-04       4    7    1         0.4332220196E-02      0.1103057756E-01

    ------------------------------------------------
       NWT REQUIRED            3 OUTER ITERATIONS 
       AND A TOTAL OF          5 INNER ITERATIONS.
    ------------------------------------------------

 NO OUTPUT CONTROL FOR STRESS PERIOD   27   TIME STEP   14
 
 SOLVING FOR HEAD 
                                                   Max.-Head-Change                         Max.-Flux-Residual
  Residual-Control   Outer-Iter.   Inner-Iter.     Column Row Layer    Maximum-Head-Change  Column Row Layer    Maximum-Flux-Residual          L2-NORM 
          0                 1           2             4    7     1       0.1170713940E-01       4    7    1         0.6135450884E+00      0.1565631067E+01
          0                 2           2             4    7     1      -0.1138788120E-02       4    7    1        -0.6135469008E-01      0.1565469615E+00
          0                 3           1             4    7     1       0.7754722558E-04       4    7    1         0.4294828455E-02      0.1095670879E-01

    ------------------------------------------------
       NWT REQUIRED            3 OUTER ITERATIONS 
       AND A TOTAL OF          5 INNER ITERATIONS.
    ------------------------------------------------

 NO OUTPUT CONTROL FOR STRESS PERIOD   27   TIME STEP   15
 
 SOLVING FOR HEAD 
                                                   Max.-Head-Change                         Max.-Flux-Residual
  Residual-Control   Outer-Iter.   Inner-Iter.     Column Row Layer    Maximum-Head-Change  Column Row Layer    Maximum-Flux-Residual          L2-NORM 
          0                 1           2             4    7     1       0.1160724127E-01       4    7    1         0.6082780212E+00      0.1555221607E+01
          0                 2           2             4    7     1      -0.1129070699E-02       4    7    1        -0.6082797948E-01      0.1555085328E+00
          0                 3           1             4    7     1       0.7688550581E-04       4    7    1         0.4257958725E-02      0.1088443109E-01

    ------------------------------------------------
       NWT REQUIRED            3 OUTER ITERATIONS 
       AND A TOTAL OF          5 INNER ITERATIONS.
    ------------------------------------------------

 NO OUTPUT CONTROL FOR STRESS PERIOD   27   TIME STEP   16
 
 SOLVING FOR HEAD 
                                                   Max.-Head-Change                         Max.-Flux-Residual
  Residual-Control   Outer-Iter.   Inner-Iter.     Column Row Layer    Maximum-Head-Change  Column Row Layer    Maximum-Flux-Residual          L2-NORM 
          0                 1           2             4    7     1       0.1150885117E-01       4    7    1         0.6030911171E+00      0.1545010922E+01
          0                 2           2             4    7     1      -0.1119499969E-02       4    7    1        -0.6030928528E-01      0.1544895212E+00
          0                 3           1             4    7     1       0.7623377483E-04       4    7    1         0.4221650147E-02      0.1081315284E-01

    ------------------------------------------------
       NWT REQUIRED            3 OUTER ITERATIONS 
       AND A TOTAL OF          5 INNER ITERATIONS.
    ------------------------------------------------

 NO OUTPUT CONTROL FOR STRESS PERIOD   27   TIME STEP   17
 
 SOLVING FOR HEAD 
                                                   Max.-Head-Change                         Max.-Flux-Residual
  Residual-Control   Outer-Iter.   Inner-Iter.     Column Row Layer    Maximum-Head-Change  Column Row Layer    Maximum-Flux-Residual          L2-NORM 
          0                 1           2             4    7     1       0.1141193351E-01       4    7    1         0.5979824016E+00      0.1534983146E+01
          0                 2           2             4    7     1      -0.1110072468E-02       4    7    1        -0.5979841004E-01      0.1534884799E+00
          0                 3           1             4    7     1       0.7559179752E-04       4    7    1         0.4185888890E-02      0.1074326921E-01

    ------------------------------------------------
       NWT REQUIRED            3 OUTER ITERATIONS 
       AND A TOTAL OF          5 INNER ITERATIONS.
    ------------------------------------------------

 NO OUTPUT CONTROL FOR STRESS PERIOD   27   TIME STEP   18
 
 SOLVING FOR HEAD 
                                                   Max.-Head-Change                         Max.-Flux-Residual
  Residual-Control   Outer-Iter.   Inner-Iter.     Column Row Layer    Maximum-Head-Change  Column Row Layer    Maximum-Flux-Residual          L2-NORM 
          0                 1           2             4    7     1       0.1131631735E-01       4    7    1         0.5929427125E+00      0.1525124208E+01
          0                 2           2             4    7     1      -0.1100771570E-02       4    7    1        -0.5929443754E-01      0.1525041021E+00
          0                 3           1             4    7     1       0.7495844174E-04       4    7    1         0.4150610855E-02      0.1067449639E-01

    ------------------------------------------------
       NWT REQUIRED            3 OUTER ITERATIONS 
       AND A TOTAL OF          5 INNER ITERATIONS.
    ------------------------------------------------

 NO OUTPUT CONTROL FOR STRESS PERIOD   27   TIME STEP   19
 
 SOLVING FOR HEAD 
                                                   Max.-Head-Change                         Max.-Flux-Residual
  Residual-Control   Outer-Iter.   Inner-Iter.     Column Row Layer    Maximum-Head-Change  Column Row Layer    Maximum-Flux-Residual          L2-NORM 
          0                 1           2             4    7     1       0.1122197730E-01       4    7    1         0.5879705039E+00      0.1515428590E+01
          0                 2           2             4    7     1      -0.1091594804E-02       4    7    1        -0.5879721319E-01      0.1515358654E+00
          0                 3           1             4    7     1       0.7433353815E-04       4    7    1         0.4115805156E-02      0.1060685067E-01

    ------------------------------------------------
       NWT REQUIRED            3 OUTER ITERATIONS 
       AND A TOTAL OF          5 INNER ITERATIONS.
    ------------------------------------------------

 NO OUTPUT CONTROL FOR STRESS PERIOD   27   TIME STEP   20
 
 SOLVING FOR HEAD 
                                                   Max.-Head-Change                         Max.-Flux-Residual
  Residual-Control   Outer-Iter.   Inner-Iter.     Column Row Layer    Maximum-Head-Change  Column Row Layer    Maximum-Flux-Residual          L2-NORM 
          0                 1           2             4    7     1       0.1112915141E-01       4    7    1         0.5830790942E+00      0.1505886026E+01
          0                 2           2             4    7     1      -0.1082565326E-02       4    7    1        -0.5830806885E-01      0.1505826247E+00
          0                 3           1             4    7     1       0.7371866466E-04       4    7    1         0.4081565074E-02      0.1054019862E-01

    ------------------------------------------------
       NWT REQUIRED            3 OUTER ITERATIONS 
       AND A TOTAL OF          5 INNER ITERATIONS.
    ------------------------------------------------

 NO OUTPUT CONTROL FOR STRESS PERIOD   27   TIME STEP   21
 
 SOLVING FOR HEAD 
                                                   Max.-Head-Change                         Max.-Flux-Residual
  Residual-Control   Outer-Iter.   Inner-Iter.     Column Row Layer    Maximum-Head-Change  Column Row Layer    Maximum-Flux-Residual          L2-NORM 
          0                 1           2             4    7     1       0.1103740316E-01       4    7    1         0.5782442390E+00      0.1496493877E+01
          0                 2           2             4    7     1      -0.1073640674E-02       4    7    1        -0.5782458002E-01      0.1496443939E+00
          0                 3           1             4    7     1       0.7311092947E-04       4    7    1         0.4047720865E-02      0.1047461345E-01

    ------------------------------------------------
       NWT REQUIRED            3 OUTER ITERATIONS 
       AND A TOTAL OF          5 INNER ITERATIONS.
    ------------------------------------------------

 NO OUTPUT CONTROL FOR STRESS PERIOD   27   TIME STEP   22
 
 SOLVING FOR HEAD 
                                                   Max.-Head-Change                         Max.-Flux-Residual
  Residual-Control   Outer-Iter.   Inner-Iter.     Column Row Layer    Maximum-Head-Change  Column Row Layer    Maximum-Flux-Residual          L2-NORM 
          0                 1           2             4    7     1       0.1094711139E-01       4    7    1         0.5734872103E+00      0.1487233527E+01
          0                 2           2             4    7     1      -0.1064857699E-02       4    7    1        -0.5734887394E-01      0.1487192063E+00
          0                 3           1             4    7     1       0.7251284191E-04       4    7    1         0.4014421471E-02      0.1040992209E-01

    ------------------------------------------------
       NWT REQUIRED            3 OUTER ITERATIONS 
       AND A TOTAL OF          5 INNER ITERATIONS.
    ------------------------------------------------

 NO OUTPUT CONTROL FOR STRESS PERIOD   27   TIME STEP   23
 
 SOLVING FOR HEAD 
                                                   Max.-Head-Change                         Max.-Flux-Residual
  Residual-Control   Outer-Iter.   Inner-Iter.     Column Row Layer    Maximum-Head-Change  Column Row Layer    Maximum-Flux-Residual          L2-NORM 
          0                 1           2             4    7     1       0.1085797205E-01       4    7    1         0.5687910620E+00      0.1478110884E+01
          0                 2           2             4    7     1      -0.1056186826E-02       4    7    1        -0.5687925598E-01      0.1478076823E+00
          0                 3           1             4    7     1       0.7192238790E-04       4    7    1         0.3981548217E-02      0.1034622946E-01

    ------------------------------------------------
       NWT REQUIRED            3 OUTER ITERATIONS 
       AND A TOTAL OF          5 INNER ITERATIONS.
    ------------------------------------------------

 NO OUTPUT CONTROL FOR STRESS PERIOD   27   TIME STEP   24
 
 SOLVING FOR HEAD 
                                                   Max.-Head-Change                         Max.-Flux-Residual
  Residual-Control   Outer-Iter.   Inner-Iter.     Column Row Layer    Maximum-Head-Change  Column Row Layer    Maximum-Flux-Residual          L2-NORM 
          0                 1           2             4    7     1       0.1077009985E-01       4    7    1         0.5641619837E+00      0.1469120680E+01
          0                 2           2             4    7     1      -0.1047639213E-02       4    7    1        -0.5641634512E-01      0.1469091773E+00
          0                 3           1             4    7     1       0.7134032785E-04       4    7    1         0.3949144484E-02      0.1028336843E-01

    ------------------------------------------------
       NWT REQUIRED            3 OUTER ITERATIONS 
       AND A TOTAL OF          5 INNER ITERATIONS.
    ------------------------------------------------

 NO OUTPUT CONTROL FOR STRESS PERIOD   27   TIME STEP   25
 
 SOLVING FOR HEAD 
                                                   Max.-Head-Change                         Max.-Flux-Residual
  Residual-Control   Outer-Iter.   Inner-Iter.     Column Row Layer    Maximum-Head-Change  Column Row Layer    Maximum-Flux-Residual          L2-NORM 
          0                 1           2             4    7     1       0.1068332744E-01       4    7    1         0.5595912862E+00      0.1460250863E+01
          0                 2           2             4    7     1      -0.1039198579E-02       4    7    1        -0.5595927239E-01      0.1460227141E+00
          0                 3           1             4    7     1       0.7076555249E-04       4    7    1         0.3917149408E-02      0.1022137476E-01

    ------------------------------------------------
       NWT REQUIRED            3 OUTER ITERATIONS 
       AND A TOTAL OF          5 INNER ITERATIONS.
    ------------------------------------------------

 NO OUTPUT CONTROL FOR STRESS PERIOD   27   TIME STEP   26
 
 SOLVING FOR HEAD 
                                                   Max.-Head-Change                         Max.-Flux-Residual
  Residual-Control   Outer-Iter.   Inner-Iter.     Column Row Layer    Maximum-Head-Change  Column Row Layer    Maximum-Flux-Residual          L2-NORM 
          0                 1           2             4    7     1       0.1059776903E-01       4    7    1         0.5550849290E+00      0.1451501463E+01
          0                 2           2             4    7     1      -0.1030876035E-02       4    7    1        -0.5550863378E-01      0.1451481865E+00
          0                 3           1             4    7     1       0.7019881835E-04       4    7    1         0.3885604717E-02      0.1016018650E-01

    ------------------------------------------------
       NWT REQUIRED            3 OUTER ITERATIONS 
       AND A TOTAL OF          5 INNER ITERATIONS.
    ------------------------------------------------

 NO OUTPUT CONTROL FOR STRESS PERIOD   27   TIME STEP   27
 
 SOLVING FOR HEAD 
                                                   Max.-Head-Change                         Max.-Flux-Residual
  Residual-Control   Outer-Iter.   Inner-Iter.     Column Row Layer    Maximum-Head-Change  Column Row Layer    Maximum-Flux-Residual          L2-NORM 
          0                 1           2             4    7     1       0.1051340119E-01       4    7    1         0.5506415158E+00      0.1442875025E+01
          0                 2           2             4    7     1      -0.1022669303E-02       4    7    1        -0.5506428964E-01      0.1442858846E+00
          0                 3           1             4    7     1       0.6963997074E-04       4    7    1         0.3854500639E-02      0.1009983595E-01

    ------------------------------------------------
       NWT REQUIRED            3 OUTER ITERATIONS 
       AND A TOTAL OF          5 INNER ITERATIONS.
    ------------------------------------------------

 NO OUTPUT CONTROL FOR STRESS PERIOD   27   TIME STEP   28
 
 SOLVING FOR HEAD 
                                                   Max.-Head-Change                         Max.-Flux-Residual
  Residual-Control   Outer-Iter.   Inner-Iter.     Column Row Layer    Maximum-Head-Change  Column Row Layer    Maximum-Flux-Residual          L2-NORM 
          0                 1           2             4    7     1       0.1043019388E-01       4    7    1         0.5462598320E+00      0.1434355213E+01
          0                 2           2             4    7     1      -0.1014575461E-02       4    7    1        -0.5462611852E-01      0.1434341736E+00
          0                 3           1             4    7     1       0.6908880993E-04       4    7    1         0.3823828654E-02      0.1004023274E-01

    ------------------------------------------------
       NWT REQUIRED            3 OUTER ITERATIONS 
       AND A TOTAL OF          5 INNER ITERATIONS.
    ------------------------------------------------

 NO OUTPUT CONTROL FOR STRESS PERIOD   27   TIME STEP   29
 
 SOLVING FOR HEAD 
                                                   Max.-Head-Change                         Max.-Flux-Residual
  Residual-Control   Outer-Iter.   Inner-Iter.     Column Row Layer    Maximum-Head-Change  Column Row Layer    Maximum-Flux-Residual          L2-NORM 
          0                 1           2             4    7     1       0.1034798767E-01       4    7    1         0.5419310012E+00      0.1425948898E+01
          0                 2           2             4    7     1      -0.1006578998E-02       4    7    1        -0.5419323278E-01      0.1425937606E+00
          0                 3           1             4    7     1       0.6854428130E-04       4    7    1         0.3793526678E-02      0.9981446786E-02

    ------------------------------------------------
       NWT REQUIRED            3 OUTER ITERATIONS 
       AND A TOTAL OF          5 INNER ITERATIONS.
    ------------------------------------------------

 NO OUTPUT CONTROL FOR STRESS PERIOD   27   TIME STEP   30



 STREAM LISTING     PERIOD     27   STEP       30

 LAYER ROW COL. STREAM  RCH.  FLOW INTO     FLOW TO   FLOW OUT OF   OVRLND.     DIRECT     STREAM       STREAM     STREAM     STREAM   STREAMBED  STREAMBED
                SEG.NO.  NO.  STRM. RCH.    AQUIFER    STRM. RCH.    RUNOFF     PRECIP       ET          HEAD       DEPTH      WIDTH   CONDCTNC.   GRADIENT

   1    1    1     1     1    1.5750E+01  1.9239E-01   1.5557E+01  0.000E+00  0.000E+00  0.000E+00  1.09407E+03  1.025E+00  1.062E+01  4.780E-02  1.342E+00
   1    2    2     1     2    1.5557E+01  2.9659E-01   1.5261E+01  0.000E+00  0.000E+00  0.000E+00  1.08908E+03  1.020E+00  1.054E+01  7.378E-02  1.340E+00
   1    3    3     1     3    1.5261E+01  2.5163E-01   1.5009E+01  0.000E+00  0.000E+00  0.000E+00  1.08343E+03  1.015E+00  1.045E+01  6.268E-02  1.338E+00
   1    3    4     1     4    1.5009E+01  2.3063E-01   1.4778E+01  0.000E+00  0.000E+00  0.000E+00  1.07842E+03  1.010E+00  1.036E+01  5.751E-02  1.337E+00
   1    4    5     2     1    1.2778E+01  2.9653E-01   1.2482E+01  0.000E+00  0.000E+00  0.000E+00  1.07274E+03  8.017E-01  1.200E+01  7.800E-02  1.267E+00
   1    5    6     2     2    1.2482E+01  2.2750E-01   1.2254E+01  0.000E+00  0.000E+00  0.000E+00  1.06730E+03  7.916E-01  1.200E+01  6.000E-02  1.264E+00
   1    6    6     2     3    1.2254E+01  2.2697E-01   1.2027E+01  0.000E+00  0.000E+00  0.000E+00  1.06258E+03  7.829E-01  1.200E+01  6.000E-02  1.261E+00
   1    7    6     2     4    1.2027E+01  2.2644E-01   1.1801E+01  0.000E+00  0.000E+00  0.000E+00  1.05785E+03  7.741E-01  1.200E+01  6.000E-02  1.258E+00
   1    8    6     2     5    1.1801E+01  2.2591E-01   1.1575E+01  0.000E+00  0.000E+00  0.000E+00  1.05312E+03  7.652E-01  1.200E+01  6.000E-02  1.255E+00
   1    3    5     3     1    2.0000E+00  2.8252E-01   1.7175E+00  0.000E+00  0.000E+00  0.000E+00  1.07555E+03  1.909E+00  9.636E+00  7.227E-02  1.955E+00
   1    3    6     3     2    1.7175E+00  2.4905E-01   1.4684E+00  0.000E+00  0.000E+00  0.000E+00  1.07264E+03  1.727E+00  8.909E+00  6.682E-02  1.864E+00
   1    3    7     3     3    1.4684E+00  1.9718E-01   1.2712E+00  0.000E+00  0.000E+00  0.000E+00  1.06987E+03  1.555E+00  8.218E+00  5.547E-02  1.777E+00
   1    4    8     3     4    1.2712E+00  2.2567E-01   1.0456E+00  0.000E+00  0.000E+00  0.000E+00  1.06682E+03  1.364E+00  7.455E+00  6.709E-02  1.682E+00
   1    5    8     3     5    1.0456E+00  1.5790E-01   8.8768E-01  0.000E+00  0.000E+00  0.000E+00  1.06362E+03  1.164E+00  6.655E+00  4.991E-02  1.582E+00
   1    6    8     3     6    8.8768E-01  5.5980E-02   8.3170E-01  0.000E+00  0.000E+00  0.000E+00  1.06158E+03  1.036E+00  6.145E+00  1.844E-02  1.518E+00
   1    5   10     4     1    1.0000E+01  9.0919E-02   9.9091E+00  0.000E+00  0.000E+00  0.000E+00  1.07836E+03  6.368E-01  1.000E+01  2.500E-02  1.212E+00
   1    5    9     4     2    9.9091E+00  1.8158E-01   9.7275E+00  0.000E+00  0.000E+00  0.000E+00  1.07154E+03  6.315E-01  1.000E+01  5.000E-02  1.211E+00
   1    6    8     4     3    9.7275E+00  1.2689E-01   9.6006E+00  0.000E+00  0.000E+00  0.000E+00  1.06381E+03  6.256E-01  1.000E+01  3.500E-02  1.209E+00
   1    6    8     5     1    1.0432E+01  2.2686E-01   1.0205E+01  0.000E+00  0.000E+00  0.000E+00  1.05868E+03  6.790E-01  1.542E+01  6.166E-02  1.226E+00
   1    7    7     5     2    1.0205E+01  2.7894E-01   9.9265E+00  0.000E+00  0.000E+00  0.000E+00  1.05417E+03  6.732E-01  1.519E+01  7.594E-02  1.224E+00
   1    8    7     5     3    9.9265E+00  1.9221E-01   9.7343E+00  0.000E+00  0.000E+00  0.000E+00  1.04992E+03  6.676E-01  1.497E+01  5.241E-02  1.223E+00
   1    8    6     5     4    9.7343E+00  1.3577E-01   9.5985E+00  0.000E+00  0.000E+00  0.000E+00  1.04691E+03  6.637E-01  1.482E+01  3.706E-02  1.221E+00
   1    9    6     6     1    2.1173E+01  2.4608E-01   2.0927E+01  0.000E+00  0.000E+00  0.000E+00  1.04383E+03  1.101E+00  1.200E+01  6.000E-02  1.367E+00
   1   10    7     6     2    2.0927E+01  2.4562E-01   2.0682E+01  0.000E+00  0.000E+00  0.000E+00  1.03928E+03  1.094E+00  1.200E+01  6.000E-02  1.365E+00
   1   11    7     6     3    2.0682E+01  2.4515E-01   2.0437E+01  0.000E+00  0.000E+00  0.000E+00  1.03472E+03  1.086E+00  1.200E+01  6.000E-02  1.362E+00
   1   12    7     6     4    2.0437E+01  2.4468E-01   2.0192E+01  0.000E+00  0.000E+00  0.000E+00  1.03017E+03  1.078E+00  1.200E+01  6.000E-02  1.359E+00
   1   13    7     6     5    2.0192E+01  9.6240E-03   2.0182E+01  0.000E+00  0.000E+00  0.000E+00  1.02698E+03  1.074E+00  1.200E+01  2.400E-02  1.337E-01
   1   14    9     7     1    1.5000E+02  1.3841E+00   1.4862E+02  0.000E+00  0.000E+00  0.000E+00  1.03987E+03  2.288E+00  5.529E+01  5.593E-01  8.249E-01
   1   13    8     7     2    1.4862E+02  1.9906E+00   1.4663E+02  0.000E+00  0.000E+00  0.000E+00  1.03478E+03  2.279E+00  5.525E+01  6.147E-01  1.079E+00
   1   13    7     7     3    1.4663E+02  1.7342E+00   1.4489E+02  0.000E+00  0.000E+00  0.000E+00  1.02969E+03  2.269E+00  5.521E+01  5.584E-01  1.035E+00
   1   13    6     8     1    1.6507E+02  1.1511E+00   1.6392E+02  0.000E+00  0.000E+00  0.000E+00  1.02479E+03  2.916E+00  4.228E+01  4.309E-01  8.905E-01
   1   13    5     8     2    1.6392E+02  3.8981E-01   1.6353E+02  0.000E+00  0.000E+00  0.000E+00  1.01854E+03  2.911E+00  4.221E+01  4.301E-01  3.021E-01
   1   13    4     8     3    1.6353E+02 -1.7113E+00   1.6524E+02  0.000E+00  0.000E+00  0.000E+00  1.01229E+03  2.915E+00  4.227E+01  4.308E+00 -1.324E-01
   1   13    3     8     4    1.6524E+02 -3.2849E+00   1.6853E+02  0.000E+00  0.000E+00  0.000E+00  1.00606E+03  2.932E+00  4.251E+01  4.332E+00 -2.528E-01
   1   13    2     8     5    1.6853E+02 -2.4699E+00   1.7100E+02  0.000E+00  0.000E+00  0.000E+00  9.99826E+02  2.951E+00  4.278E+01  4.360E+00 -1.888E-01
   1   13    1     8     6    1.7100E+02 -1.9345E+00   1.7293E+02  0.000E+00  0.000E+00  0.000E+00  9.94840E+02  2.965E+00  4.299E+01  2.629E+00 -2.453E-01
   1    8    6     9     1    0.0000E+00  0.0000E+00   0.0000E+00  0.000E+00  0.000E+00  0.000E+00  1.07875E+03  0.000E+00  4.000E+00  0.000E+00  1.000E+00
   1    8    5     9     2    0.0000E+00  0.0000E+00   0.0000E+00  0.000E+00  0.000E+00  0.000E+00  1.07825E+03  0.000E+00  4.000E+00  0.000E+00  1.000E+00





UNSATURATED ZONE PACKAGE VOLUMETRIC BUDGET FOR  TIME STEP    30 STRESS PERIOD   27
  ------------------------------------------------------------------------------



     CUMULATIVE VOLUMES      L**3       RATES FOR THIS TIME STEP      L**3/T
     ------------------                 ------------------------

           IN:                                      IN:
           ---                                      ---
        INFILTRATION =  1119494013.9990          INFILTRATION =           0.8475

          OUT:                                     OUT:
          ----                                     ----
              UZF ET =   866239340.4460                UZF ET =           0.7500
        UZF RECHARGE =       73224.0000          UZF RECHARGE =       0.0000E+00

            IN - OUT =   253181449.5530              IN - OUT =       9.7500E-02

          STORAGE:                                 STORAGE:
          --------                                 --------
      STORAGE CHANGE =   253185688.1199        STORAGE CHANGE =       9.7500E-02

 PERCENT DISCREPANCY IS DIFFERENCE BETWEEN IN-OUT MINUS CHANGE IN STORAGE
 DIVIDED BY THE AVERAGE OF IN AND OUT TIMES 100

 PERCENT DISCREPANCY =          -0.00     PERCENT DISCREPANCY =           0.00






1
  VOLUMETRIC BUDGET FOR AGRICULTURAL FIELDS AT  END OF TIME STEP   30, STRESS PERIOD  27
  ------------------------------------------------------------------------------

     CUMULATIVE VOLUMES      L**3       RATES FOR THIS TIME STEP      L**3/T
     ------------------                 ------------------------

           IN:                                      IN:
           ---                                      ---
               AG WELLS  =   697628416.0000                 AG WELLS  =           0.0000
      DIVERSION SEGMENTS =   363935712.0000        DIVERSION SEGMENTS =           0.0000
       IRRIGATION PONDS  =           0.0000         IRRIGATION PONDS  =           0.0000
           GW IRRIGATION =           0.0000             GW IRRIGATION =           0.0000
           SW IRRIGATION =           0.0000             SW IRRIGATION =           0.0000
        SYSTEM LOSSES GW =           0.0000          SYSTEM LOSSES GW =           0.0000
        SYSTEM LOSSES SW =           0.0000          SYSTEM LOSSES SW =           0.0000

                TOTAL IN =  1061564160.0000                  TOTAL IN =           0.0000

          OUT:                                     OUT:
          ----                                     ----
               AG WELLS  =           0.0000                 AG WELLS  =           0.0000
      DIVERSION SEGMENTS =           0.0000        DIVERSION SEGMENTS =           0.0000
       IRRIGATION PONDS  =           0.0000         IRRIGATION PONDS  =           0.0000
           GW IRRIGATION =   697628416.0000             GW IRRIGATION =           0.0000
           SW IRRIGATION =   363942752.0000             SW IRRIGATION =           0.0000
        SYSTEM LOSSES GW =           0.0000          SYSTEM LOSSES GW =           0.0000
        SYSTEM LOSSES SW =           0.0000          SYSTEM LOSSES SW =           0.0000

               TOTAL OUT =  1061571200.0000                 TOTAL OUT =           0.0000

                IN - OUT =       -7040.0000                  IN - OUT =           0.0000

     PERCENT DISCREPANCY =          -0.00         PERCENT DISCREPANCY =           0.00



1
  VOLUMETRIC BUDGET FOR ENTIRE MODEL AT END OF TIME STEP   30, STRESS PERIOD  27
  ------------------------------------------------------------------------------

     CUMULATIVE VOLUMES      L**3       RATES FOR THIS TIME STEP      L**3/T
     ------------------                 ------------------------

           IN:                                      IN:
           ---                                      ---
             STORAGE     =  1098820608.0000               STORAGE     =           3.1417
       CONSTANT HEAD     =           0.0000         CONSTANT HEAD     =           0.0000
     HEAD DEP BOUNDS     =    19733194.0000       HEAD DEP BOUNDS     =           0.2890
      STREAM LEAKAGE     =   807475968.0000        STREAM LEAKAGE     =          12.2170
        UZF RECHARGE     =       73223.9531          UZF RECHARGE     =           0.0000
               GW ET     =           0.0000                 GW ET     =           0.0000
     SURFACE LEAKAGE     =           0.0000       SURFACE LEAKAGE     =           0.0000
           AG WELLS      =           0.0000             AG WELLS      =           0.0000

                TOTAL IN =  1926103040.0000                  TOTAL IN =          15.6478

          OUT:                                     OUT:
          ----                                     ----
             STORAGE     =   522246016.0000               STORAGE     =           5.9600
       CONSTANT HEAD     =           0.0000         CONSTANT HEAD     =           0.0000
     HEAD DEP BOUNDS     =    19703286.0000       HEAD DEP BOUNDS     =           0.2879
      STREAM LEAKAGE     =   686533696.0000        STREAM LEAKAGE     =           9.4007
        UZF RECHARGE     =           0.0000          UZF RECHARGE     =           0.0000
               GW ET     =           0.0000                 GW ET     =           0.0000
     SURFACE LEAKAGE     =           0.0000       SURFACE LEAKAGE     =           0.0000
           AG WELLS      =   697628416.0000             AG WELLS      =           0.0000

               TOTAL OUT =  1926111488.0000                 TOTAL OUT =          15.6486

                IN - OUT =       -8448.0000                  IN - OUT =      -8.0299E-04

     PERCENT DISCREPANCY =          -0.00         PERCENT DISCREPANCY =          -0.01






         TIME SUMMARY AT END OF TIME STEP   30 IN STRESS PERIOD   27
                    SECONDS     MINUTES      HOURS       DAYS        YEARS
                    -----------------------------------------------------------
   TIME STEP LENGTH  87667.      1461.1      24.352      1.0147     2.77799E-03
 STRESS PERIOD TIME 2.63000E+06  43833.      730.56      30.440     8.33397E-02
         TOTAL TIME 6.84668E+07 1.14111E+06  19019.      792.44      2.1696    
1
1
                            STRESS PERIOD NO.   28, LENGTH =   2630000.    
                            -----------------------------------------------

                              NUMBER OF TIME STEPS =    30

                               MULTIPLIER FOR DELT =     1.000

                            INITIAL TIME STEP SIZE =   87666.66    

 REUSING NON-PARAMETER GHB CELLS FROM LAST STRESS PERIOD

      2 GHB CELLS

 REUSING STREAM SEGMENT DATA FROM LAST STRESS PERIOD



            AREAL INFILTRATION RATE
 READING ON UNIT   19 WITH FORMAT: (FREE)              

            1           2           3           4           5           6           7           8           9          10
 ........................................................................................................................
   1   1.0000E-10  2.0000E-10   0.000       0.000       0.000       0.000       0.000       0.000       0.000       0.000    
   2   2.0000E-10  1.0000E-10  2.0000E-10   0.000       0.000      8.0000E-10  8.0000E-10  5.0000E-10   0.000       0.000    
   3    0.000      5.0000E-10  1.0000E-10  1.0000E-10  8.0000E-10  8.0000E-10  5.0000E-10  5.0000E-10   0.000       0.000    
   4   8.0000E-10  5.0000E-10  1.0000E-10  1.0000E-10  1.0000E-10  1.0000E-10  1.0000E-10  1.0000E-10  2.0000E-10   0.000    
   5   8.0000E-10  5.0000E-10  1.0000E-10  1.0000E-10  1.0000E-10  1.0000E-10  1.0000E-10  1.0000E-10  1.0000E-10  1.0000E-10
   6   8.0000E-10  5.0000E-10  5.0000E-10  2.0000E-10  2.0000E-10  1.0000E-10  1.0000E-10  1.0000E-10  1.0000E-10  5.0000E-10
   7   8.0000E-10  5.0000E-10  5.0000E-10  2.0000E-10  2.0000E-10  1.0000E-10  1.0000E-10  2.0000E-10  2.0000E-10   0.000    
   8    0.000      5.0000E-10  5.0000E-10  2.0000E-10  2.0000E-10  1.0000E-10  1.0000E-10  2.0000E-10  5.0000E-10   0.000    
   9    0.000      5.0000E-10  5.0000E-10  2.0000E-10  2.0000E-10  1.0000E-10  1.0000E-10  2.0000E-10  5.0000E-10   0.000    
  10    0.000      5.0000E-10  5.0000E-10  2.0000E-10  2.0000E-10  1.0000E-10  1.0000E-10  2.0000E-10  5.0000E-10  8.0000E-10
  11    0.000      1.0000E-10  1.0000E-10  1.0000E-10  1.0000E-10  1.0000E-10  1.0000E-10  2.0000E-10  5.0000E-10   0.000    
  12   1.0000E-10  1.0000E-10  1.0000E-10  1.0000E-10  1.0000E-10  1.0000E-10  1.0000E-10  1.0000E-10  2.0000E-10   0.000    
  13   1.0000E-10  1.0000E-10  2.0000E-10  2.0000E-10  2.0000E-10  2.0000E-10  2.0000E-10  1.0000E-10  1.0000E-10   0.000    
  14    0.000      2.0000E-10  5.0000E-10  5.0000E-10  5.0000E-10  5.0000E-10  5.0000E-10  2.0000E-10  1.0000E-10   0.000    
  15    0.000       0.000      8.0000E-10  8.0000E-10  8.0000E-10  8.0000E-10   0.000       0.000       0.000       0.000    

                  ET RATE =  5.000000E-10

 USING ET EXTINCTION DEPTH FROM PREVIOUS STRESS PERIOD. CURRENT PERIOD IS:      28

 USING EXTINCTION WATER CONTENT FROM PREVIOUS STRESS PERIOD. CURRENT PERIOD IS:      28

 USING AIR ENTRY PRESSURE FROM PREVIOUS STRESS PERIOD. CURRENT PERIOD IS:      28

 USING ROOT PRESSURE HEAD FROM PREVIOUS STRESS PERIOD. CURRENT PERIOD IS:      28

 USING ROOT ACTIVITY FROM PREVIOUS STRESS PERIOD. CURRENT PERIOD IS:      28

 PROCESSING AG STRESS PERIOD DATA

 READING AG STRESS PERIOD DATA

 READING IRRIGATION SEGMENT

 READING IRRIGATION WELL

 READING SUPPLEMENTAL WELL

 NO IRRPOND OR REUSING IRRPOND DATA FROM LAST STRESS PERIOD

 END PROCESSING AG STRESS PERIOD DATA OPTIONS
 
 SOLVING FOR HEAD 
                                                   Max.-Head-Change                         Max.-Flux-Residual
  Residual-Control   Outer-Iter.   Inner-Iter.     Column Row Layer    Maximum-Head-Change  Column Row Layer    Maximum-Flux-Residual          L2-NORM 
          0                 1           2             4    7     1       0.1026697068E-01       4    7    1         0.5376613942E+00      0.1470782863E+01
          0                 2           2             4    7     1      -0.9986982147E-03       4    7    1        -0.5376626941E-01      0.1468608556E+00
          0                 3           1             4    7     1       0.6800762915E-04       4    7    1         0.3763639258E-02      0.1026040490E-01

    ------------------------------------------------
       NWT REQUIRED            3 OUTER ITERATIONS 
       AND A TOTAL OF          5 INNER ITERATIONS.
    ------------------------------------------------

 NO OUTPUT CONTROL FOR STRESS PERIOD   28   TIME STEP    1
 
 SOLVING FOR HEAD 
                                                   Max.-Head-Change                         Max.-Flux-Residual
  Residual-Control   Outer-Iter.   Inner-Iter.     Column Row Layer    Maximum-Head-Change  Column Row Layer    Maximum-Flux-Residual          L2-NORM 
          0                 1           2             4    7     1       0.1018714953E-01       4    7    1         0.5334534478E+00      0.1522021041E+01
          0                 2           2             4    7     1      -0.9909337535E-03       4    7    1        -0.5334547214E-01      0.1517192949E+00
          0                 3           1             4    7     1       0.6747889822E-04       4    7    1         0.3734183463E-02      0.1057612069E-01

    ------------------------------------------------
       NWT REQUIRED            3 OUTER ITERATIONS 
       AND A TOTAL OF          5 INNER ITERATIONS.
    ------------------------------------------------

 NO OUTPUT CONTROL FOR STRESS PERIOD   28   TIME STEP    2
 
 SOLVING FOR HEAD 
                                                   Max.-Head-Change                         Max.-Flux-Residual
  Residual-Control   Outer-Iter.   Inner-Iter.     Column Row Layer    Maximum-Head-Change  Column Row Layer    Maximum-Flux-Residual          L2-NORM 
          0                 1           2             4    7     1       0.1010849476E-01       4    7    1         0.5293075040E+00      0.1501409858E+01
          0                 2           2             4    7     1      -0.9830646281E-03       4    7    1        -0.5293087521E-01      0.1449756791E+00
          0                 3           1             4    7     1       0.6692057603E-04       4    7    1         0.3705161652E-02      0.1027708896E-01

    ------------------------------------------------
       NWT REQUIRED            3 OUTER ITERATIONS 
       AND A TOTAL OF          5 INNER ITERATIONS.
    ------------------------------------------------

 NO OUTPUT CONTROL FOR STRESS PERIOD   28   TIME STEP    3
 
 SOLVING FOR HEAD 
                                                   Max.-Head-Change                         Max.-Flux-Residual
  Residual-Control   Outer-Iter.   Inner-Iter.     Column Row Layer    Maximum-Head-Change  Column Row Layer    Maximum-Flux-Residual          L2-NORM 
          0                 1           2             4    7     1       0.1003146120E-01       4    7    1         0.5252323481E+00      0.1486668793E+01
          0                 2           2             4    7     1      -0.9750811250E-03       4    7    1        -0.5252335684E-01      0.1505368817E+00
          0                 3           1             5    8     1       0.8913393096E-04       5    8    1         0.4764442577E-02      0.1105458091E-01

    ------------------------------------------------
       NWT REQUIRED            3 OUTER ITERATIONS 
       AND A TOTAL OF          5 INNER ITERATIONS.
    ------------------------------------------------

 NO OUTPUT CONTROL FOR STRESS PERIOD   28   TIME STEP    4
 
 SOLVING FOR HEAD 
                                                   Max.-Head-Change                         Max.-Flux-Residual
  Residual-Control   Outer-Iter.   Inner-Iter.     Column Row Layer    Maximum-Head-Change  Column Row Layer    Maximum-Flux-Residual          L2-NORM 
          0                 1           2             4    7     1       0.9956767680E-02       4    7    1         0.5212551790E+00      0.1469458745E+01
          0                 2           2             4    7     1      -0.9678299945E-03       4    7    1        -0.5212563670E-01      0.1488226779E+00
          0                 3           1             5    8     1       0.8729865802E-04       5    8    1         0.4663470966E-02      0.1092057164E-01

    ------------------------------------------------
       NWT REQUIRED            3 OUTER ITERATIONS 
       AND A TOTAL OF          5 INNER ITERATIONS.
    ------------------------------------------------

 NO OUTPUT CONTROL FOR STRESS PERIOD   28   TIME STEP    5
 
 SOLVING FOR HEAD 
                                                   Max.-Head-Change                         Max.-Flux-Residual
  Residual-Control   Outer-Iter.   Inner-Iter.     Column Row Layer    Maximum-Head-Change  Column Row Layer    Maximum-Flux-Residual          L2-NORM 
          0                 1           2             4    7     1       0.9883888318E-02       4    7    1         0.5173815674E+00      0.1453691140E+01
          0                 2           2             4    7     1      -0.9607543630E-03       4    7    1        -0.5173827258E-01      0.1472484074E+00
          0                 3           1             5    8     1       0.8558604266E-04       5    8    1         0.4569342155E-02      0.1079776593E-01

    ------------------------------------------------
       NWT REQUIRED            3 OUTER ITERATIONS 
       AND A TOTAL OF          5 INNER ITERATIONS.
    ------------------------------------------------

 NO OUTPUT CONTROL FOR STRESS PERIOD   28   TIME STEP    6
 
 SOLVING FOR HEAD 
                                                   Max.-Head-Change                         Max.-Flux-Residual
  Residual-Control   Outer-Iter.   Inner-Iter.     Column Row Layer    Maximum-Head-Change  Column Row Layer    Maximum-Flux-Residual          L2-NORM 
          0                 1           2             4    7     1       0.9812405163E-02       4    7    1         0.5135874331E+00      0.1439186608E+01
          0                 2           2             4    7     1      -0.9538136729E-03       4    7    1        -0.5135885637E-01      0.1457959527E+00
          0                 3           1             5    8     1       0.8398349804E-04       5    8    1         0.4481346836E-02      0.1068368469E-01

    ------------------------------------------------
       NWT REQUIRED            3 OUTER ITERATIONS 
       AND A TOTAL OF          5 INNER ITERATIONS.
    ------------------------------------------------

 NO OUTPUT CONTROL FOR STRESS PERIOD   28   TIME STEP    7
 
 SOLVING FOR HEAD 
                                                   Max.-Head-Change                         Max.-Flux-Residual
  Residual-Control   Outer-Iter.   Inner-Iter.     Column Row Layer    Maximum-Head-Change  Column Row Layer    Maximum-Flux-Residual          L2-NORM 
          0                 1           2             4    7     1       0.9742327199E-02       4    7    1         0.5098730602E+00      0.1425749557E+01
          0                 2           2             4    7     1      -0.9470088645E-03       4    7    1        -0.5098741647E-01      0.1444460852E+00
          0                 3           1             5    8     1       0.8248274699E-04       5    8    1         0.4399025202E-02      0.1057774067E-01

    ------------------------------------------------
       NWT REQUIRED            3 OUTER ITERATIONS 
       AND A TOTAL OF          5 INNER ITERATIONS.
    ------------------------------------------------

 NO OUTPUT CONTROL FOR STRESS PERIOD   28   TIME STEP    8
 
 SOLVING FOR HEAD 
                                                   Max.-Head-Change                         Max.-Flux-Residual
  Residual-Control   Outer-Iter.   Inner-Iter.     Column Row Layer    Maximum-Head-Change  Column Row Layer    Maximum-Flux-Residual          L2-NORM 
          0                 1           2             4    7     1       0.9673536178E-02       4    7    1         0.5062315906E+00      0.1413238355E+01
          0                 2           2             4    7     1      -0.9403285201E-03       4    7    1        -0.5062326709E-01      0.1431865137E+00
          0                 3           1             5    8     1       0.8107308501E-04       5    8    1         0.4321778780E-02      0.1047824907E-01

    ------------------------------------------------
       NWT REQUIRED            3 OUTER ITERATIONS 
       AND A TOTAL OF          5 INNER ITERATIONS.
    ------------------------------------------------

 NO OUTPUT CONTROL FOR STRESS PERIOD   28   TIME STEP    9
 
 SOLVING FOR HEAD 
                                                   Max.-Head-Change                         Max.-Flux-Residual
  Residual-Control   Outer-Iter.   Inner-Iter.     Column Row Layer    Maximum-Head-Change  Column Row Layer    Maximum-Flux-Residual          L2-NORM 
          0                 1           2             4    7     1       0.9605929379E-02       4    7    1         0.5026568884E+00      0.1401520857E+01
          0                 2           2             4    7     1      -0.9337627111E-03       4    7    1        -0.5026579458E-01      0.1420037899E+00
          0                 3           1             5    8     1       0.7974646853E-04       5    8    1         0.4249156345E-02      0.1038513475E-01

    ------------------------------------------------
       NWT REQUIRED            3 OUTER ITERATIONS 
       AND A TOTAL OF          5 INNER ITERATIONS.
    ------------------------------------------------

 NO OUTPUT CONTROL FOR STRESS PERIOD   28   TIME STEP   10
 
 SOLVING FOR HEAD 
                                                   Max.-Head-Change                         Max.-Flux-Residual
  Residual-Control   Outer-Iter.   Inner-Iter.     Column Row Layer    Maximum-Head-Change  Column Row Layer    Maximum-Flux-Residual          L2-NORM 
          0                 1           2             4    7     1       0.9539416566E-02       4    7    1         0.4991436242E+00      0.1390503631E+01
          0                 2           2             4    7     1      -0.9273026911E-03       4    7    1        -0.4991446600E-01      0.1408894526E+00
          0                 3           1             5    8     1       0.7849890351E-04       5    8    1         0.4180931708E-02      0.1029770296E-01

    ------------------------------------------------
       NWT REQUIRED            3 OUTER ITERATIONS 
       AND A TOTAL OF          5 INNER ITERATIONS.
    ------------------------------------------------

 NO OUTPUT CONTROL FOR STRESS PERIOD   28   TIME STEP   11
 
 SOLVING FOR HEAD 
                                                   Max.-Head-Change                         Max.-Flux-Residual
  Residual-Control   Outer-Iter.   Inner-Iter.     Column Row Layer    Maximum-Head-Change  Column Row Layer    Maximum-Flux-Residual          L2-NORM 
          0                 1           2             4    7     1       0.9474057003E-02       4    7    1         0.4956944384E+00      0.1380091081E+01
          0                 2           2             4    7     1      -0.9209542936E-03       4    7    1        -0.4956954541E-01      0.1398337521E+00
          0                 3           1             5    8     1       0.7732190358E-04       5    8    1         0.4116632430E-02      0.1021416623E-01

    ------------------------------------------------
       NWT REQUIRED            3 OUTER ITERATIONS 
       AND A TOTAL OF          5 INNER ITERATIONS.
    ------------------------------------------------

 NO OUTPUT CONTROL FOR STRESS PERIOD   28   TIME STEP   12
 
 SOLVING FOR HEAD 
                                                   Max.-Head-Change                         Max.-Flux-Residual
  Residual-Control   Outer-Iter.   Inner-Iter.     Column Row Layer    Maximum-Head-Change  Column Row Layer    Maximum-Flux-Residual          L2-NORM 
          0                 1           2             4    7     1       0.9409504010E-02       4    7    1         0.4922904374E+00      0.1370198031E+01
          0                 2           2             4    7     1      -0.9146838415E-03       4    7    1        -0.4922914335E-01      0.1388292212E+00
          0                 3           1             5    8     1       0.7620941528E-04       5    8    1         0.4055919064E-02      0.1013530658E-01

    ------------------------------------------------
       NWT REQUIRED            3 OUTER ITERATIONS 
       AND A TOTAL OF          5 INNER ITERATIONS.
    ------------------------------------------------

 NO OUTPUT CONTROL FOR STRESS PERIOD   28   TIME STEP   13
 
 SOLVING FOR HEAD 
                                                   Max.-Head-Change                         Max.-Flux-Residual
  Residual-Control   Outer-Iter.   Inner-Iter.     Column Row Layer    Maximum-Head-Change  Column Row Layer    Maximum-Flux-Residual          L2-NORM 
          0                 1           2             4    7     1       0.9345834436E-02       4    7    1         0.4889356062E+00      0.1360762713E+01
          0                 2           2             4    7     1      -0.9084988563E-03       4    7    1        -0.4889365841E-01      0.1378696002E+00
          0                 3           1             5    8     1       0.7515590618E-04       5    8    1         0.3998484108E-02      0.1005945696E-01

    ------------------------------------------------
       NWT REQUIRED            3 OUTER ITERATIONS 
       AND A TOTAL OF          5 INNER ITERATIONS.
    ------------------------------------------------

 NO OUTPUT CONTROL FOR STRESS PERIOD   28   TIME STEP   14
 
 SOLVING FOR HEAD 
                                                   Max.-Head-Change                         Max.-Flux-Residual
  Residual-Control   Outer-Iter.   Inner-Iter.     Column Row Layer    Maximum-Head-Change  Column Row Layer    Maximum-Flux-Residual          L2-NORM 
          0                 1           2             4    7     1       0.9282992634E-02       4    7    1         0.4856266058E+00      0.1351726830E+01
          0                 2           2             4    7     1      -0.9023939627E-03       4    7    1        -0.4856275661E-01      0.1369494630E+00
          0                 3           1             5    8     1       0.7415641705E-04       5    8    1         0.3944048494E-02      0.9987333549E-02

    ------------------------------------------------
       NWT REQUIRED            3 OUTER ITERATIONS 
       AND A TOTAL OF          5 INNER ITERATIONS.
    ------------------------------------------------

 NO OUTPUT CONTROL FOR STRESS PERIOD   28   TIME STEP   15
 
 SOLVING FOR HEAD 
                                                   Max.-Head-Change                         Max.-Flux-Residual
  Residual-Control   Outer-Iter.   Inner-Iter.     Column Row Layer    Maximum-Head-Change  Column Row Layer    Maximum-Flux-Residual          L2-NORM 
          0                 1           2             4    7     1       0.9221066268E-02       4    7    1         0.4823678704E+00      0.1343047051E+01
          0                 2           2             4    7     1      -0.8963777115E-03       4    7    1        -0.4823688137E-01      0.1360644077E+00
          0                 3           1             5    8     1       0.7320803799E-04       5    8    1         0.3892450305E-02      0.9917775364E-02

    ------------------------------------------------
       NWT REQUIRED            3 OUTER ITERATIONS 
       AND A TOTAL OF          5 INNER ITERATIONS.
    ------------------------------------------------

 NO OUTPUT CONTROL FOR STRESS PERIOD   28   TIME STEP   16
 
 SOLVING FOR HEAD 
                                                   Max.-Head-Change                         Max.-Flux-Residual
  Residual-Control   Outer-Iter.   Inner-Iter.     Column Row Layer    Maximum-Head-Change  Column Row Layer    Maximum-Flux-Residual          L2-NORM 
          0                 1           2             4    7     1       0.9159738616E-02       4    7    1         0.4791419794E+00      0.1334680544E+01
          0                 2           2             4    7     1      -0.8904193404E-03       4    7    1        -0.4791429065E-01      0.1352135558E+00
          0                 3           1             5    8     1       0.7230491966E-04       5    8    1         0.3843362743E-02      0.9851141127E-02

    ------------------------------------------------
       NWT REQUIRED            3 OUTER ITERATIONS 
       AND A TOTAL OF          5 INNER ITERATIONS.
    ------------------------------------------------

 NO OUTPUT CONTROL FOR STRESS PERIOD   28   TIME STEP   17
 
 SOLVING FOR HEAD 
                                                   Max.-Head-Change                         Max.-Flux-Residual
  Residual-Control   Outer-Iter.   Inner-Iter.     Column Row Layer    Maximum-Head-Change  Column Row Layer    Maximum-Flux-Residual          L2-NORM 
          0                 1           2             4    7     1       0.9099114528E-02       4    7    1         0.4759544729E+00      0.1326593688E+01
          0                 2           2             4    7     1      -0.8845414955E-03       4    7    1        -0.4759553844E-01      0.1343953652E+00
          0                 3           1             5    8     1       0.7144504539E-04       5    8    1         0.3796670641E-02      0.9787076741E-02

    ------------------------------------------------
       NWT REQUIRED            3 OUTER ITERATIONS 
       AND A TOTAL OF          5 INNER ITERATIONS.
    ------------------------------------------------

 NO OUTPUT CONTROL FOR STRESS PERIOD   28   TIME STEP   18
 
 SOLVING FOR HEAD 
                                                   Max.-Head-Change                         Max.-Flux-Residual
  Residual-Control   Outer-Iter.   Inner-Iter.     Column Row Layer    Maximum-Head-Change  Column Row Layer    Maximum-Flux-Residual          L2-NORM 
          0                 1           2             4    7     1       0.9039256865E-02       4    7    1         0.4728101263E+00      0.1318751332E+01
          0                 2           2             4    7     1      -0.8787130276E-03       4    7    1        -0.4728110229E-01      0.1335832855E+00
          0                 3           1             5    8     1       0.7062489877E-04       5    8    1         0.3752180358E-02      0.9723778068E-02

    ------------------------------------------------
       NWT REQUIRED            3 OUTER ITERATIONS 
       AND A TOTAL OF          5 INNER ITERATIONS.
    ------------------------------------------------

 NO OUTPUT CONTROL FOR STRESS PERIOD   28   TIME STEP   19
 
 SOLVING FOR HEAD 
                                                   Max.-Head-Change                         Max.-Flux-Residual
  Residual-Control   Outer-Iter.   Inner-Iter.     Column Row Layer    Maximum-Head-Change  Column Row Layer    Maximum-Flux-Residual          L2-NORM 
          0                 1           2             4    7     1       0.8980035997E-02       4    7    1         0.4696995350E+00      0.1311126274E+01
          0                 2           2             4    7     1      -0.8729586566E-03       4    7    1        -0.4697004174E-01      0.1328034866E+00
          0                 3           1             5    8     1       0.6983967302E-04       5    8    1         0.3709623618E-02      0.9663145334E-02

    ------------------------------------------------
       NWT REQUIRED            3 OUTER ITERATIONS 
       AND A TOTAL OF          5 INNER ITERATIONS.
    ------------------------------------------------

 NO OUTPUT CONTROL FOR STRESS PERIOD   28   TIME STEP   20
 
 SOLVING FOR HEAD 
                                                   Max.-Head-Change                         Max.-Flux-Residual
  Residual-Control   Outer-Iter.   Inner-Iter.     Column Row Layer    Maximum-Head-Change  Column Row Layer    Maximum-Flux-Residual          L2-NORM 
          0                 1           2             4    7     1       0.8921278379E-02       4    7    1         0.4666139940E+00      0.1303702198E+01
          0                 2           2             4    7     1      -0.8672490792E-03       4    7    1        -0.4666148624E-01      0.1320441497E+00
          0                 3           1             5    8     1       0.6908825804E-04       5    8    1         0.3668937296E-02      0.9604215827E-02

    ------------------------------------------------
       NWT REQUIRED            3 OUTER ITERATIONS 
       AND A TOTAL OF          5 INNER ITERATIONS.
    ------------------------------------------------

 NO OUTPUT CONTROL FOR STRESS PERIOD   28   TIME STEP   21
 
 SOLVING FOR HEAD 
                                                   Max.-Head-Change                         Max.-Flux-Residual
  Residual-Control   Outer-Iter.   Inner-Iter.     Column Row Layer    Maximum-Head-Change  Column Row Layer    Maximum-Flux-Residual          L2-NORM 
          0                 1           2             4    7     1       0.8863240127E-02       4    7    1         0.4635671317E+00      0.1296466038E+01
          0                 2           2             4    7     1      -0.8616092296E-03       4    7    1        -0.4635679864E-01      0.1313035900E+00
          0                 3           1             5    8     1       0.6836800226E-04       5    8    1         0.3629974578E-02      0.9546713697E-02

    ------------------------------------------------
       NWT REQUIRED            3 OUTER ITERATIONS 
       AND A TOTAL OF          5 INNER ITERATIONS.
    ------------------------------------------------

 NO OUTPUT CONTROL FOR STRESS PERIOD   28   TIME STEP   22
 
 SOLVING FOR HEAD 
                                                   Max.-Head-Change                         Max.-Flux-Residual
  Residual-Control   Outer-Iter.   Inner-Iter.     Column Row Layer    Maximum-Head-Change  Column Row Layer    Maximum-Flux-Residual          L2-NORM 
          0                 1           2             4    7     1       0.8805760472E-02       4    7    1         0.4605502596E+00      0.1289394539E+01
          0                 2           2             4    7     1      -0.8560235013E-03       4    7    1        -0.4605511010E-01      0.1305799034E+00
          0                 3           1             5    8     1       0.6767490104E-04       5    8    1         0.3592511499E-02      0.9490885488E-02

    ------------------------------------------------
       NWT REQUIRED            3 OUTER ITERATIONS 
       AND A TOTAL OF          5 INNER ITERATIONS.
    ------------------------------------------------

 NO OUTPUT CONTROL FOR STRESS PERIOD   28   TIME STEP   23
 
 SOLVING FOR HEAD 
                                                   Max.-Head-Change                         Max.-Flux-Residual
  Residual-Control   Outer-Iter.   Inner-Iter.     Column Row Layer    Maximum-Head-Change  Column Row Layer    Maximum-Flux-Residual          L2-NORM 
          0                 1           2             4    7     1       0.8748960781E-02       4    7    1         0.4575696850E+00      0.1282484850E+01
          0                 2           2             4    7     1      -0.8505036910E-03       4    7    1        -0.4575705136E-01      0.1298726034E+00
          0                 3           1             5    8     1       0.6701015991E-04       5    8    1         0.3556614841E-02      0.9436283227E-02

    ------------------------------------------------
       NWT REQUIRED            3 OUTER ITERATIONS 
       AND A TOTAL OF          5 INNER ITERATIONS.
    ------------------------------------------------

 NO OUTPUT CONTROL FOR STRESS PERIOD   28   TIME STEP   24
 
 SOLVING FOR HEAD 
                                                   Max.-Head-Change                         Max.-Flux-Residual
  Residual-Control   Outer-Iter.   Inner-Iter.     Column Row Layer    Maximum-Head-Change  Column Row Layer    Maximum-Flux-Residual          L2-NORM 
          0                 1           2             4    7     1       0.8692549435E-02       4    7    1         0.4546097334E+00      0.1275711475E+01
          0                 2           2             4    7     1      -0.8450214736E-03       4    7    1        -0.4546105493E-01      0.1291792056E+00
          0                 3           1             5    8     1       0.6636841724E-04       5    8    1         0.3521986041E-02      0.9382998848E-02

    ------------------------------------------------
       NWT REQUIRED            3 OUTER ITERATIONS 
       AND A TOTAL OF          5 INNER ITERATIONS.
    ------------------------------------------------

 NO OUTPUT CONTROL FOR STRESS PERIOD   28   TIME STEP   25
 
 SOLVING FOR HEAD 
                                                   Max.-Head-Change                         Max.-Flux-Residual
  Residual-Control   Outer-Iter.   Inner-Iter.     Column Row Layer    Maximum-Head-Change  Column Row Layer    Maximum-Flux-Residual          L2-NORM 
          0                 1           2             4    7     1       0.8636790114E-02       4    7    1         0.4516845729E+00      0.1269075232E+01
          0                 2           2             4    7     1      -0.8396024856E-03       4    7    1        -0.4516853764E-01      0.1284998537E+00
          0                 3           1             5    8     1       0.6575124386E-04       5    8    1         0.3488712653E-02      0.9330757130E-02

    ------------------------------------------------
       NWT REQUIRED            3 OUTER ITERATIONS 
       AND A TOTAL OF          5 INNER ITERATIONS.
    ------------------------------------------------

 NO OUTPUT CONTROL FOR STRESS PERIOD   28   TIME STEP   26
 
 SOLVING FOR HEAD 
                                                   Max.-Head-Change                         Max.-Flux-Residual
  Residual-Control   Outer-Iter.   Inner-Iter.     Column Row Layer    Maximum-Head-Change  Column Row Layer    Maximum-Flux-Residual          L2-NORM 
          0                 1           2             4    7     1       0.8581399446E-02       4    7    1         0.4487785846E+00      0.1262560828E+01
          0                 2           2             4    7     1      -0.8342192033E-03       4    7    1        -0.4487793761E-01      0.1278329062E+00
          0                 3           1             5    8     1       0.6515361340E-04       5    8    1         0.3456514714E-02      0.9279631769E-02

    ------------------------------------------------
       NWT REQUIRED            3 OUTER ITERATIONS 
       AND A TOTAL OF          5 INNER ITERATIONS.
    ------------------------------------------------

 NO OUTPUT CONTROL FOR STRESS PERIOD   28   TIME STEP   27
 
 SOLVING FOR HEAD 
                                                   Max.-Head-Change                         Max.-Flux-Residual
  Residual-Control   Outer-Iter.   Inner-Iter.     Column Row Layer    Maximum-Head-Change  Column Row Layer    Maximum-Flux-Residual          L2-NORM 
          0                 1           2             4    7     1       0.8526637914E-02       4    7    1         0.4459063654E+00      0.1256160541E+01
          0                 2           2             4    7     1      -0.8288969494E-03       4    7    1        -0.4459071451E-01      0.1271779357E+00
          0                 3           1             5    8     1       0.6457739957E-04       5    8    1         0.3425496708E-02      0.9229597372E-02

    ------------------------------------------------
       NWT REQUIRED            3 OUTER ITERATIONS 
       AND A TOTAL OF          5 INNER ITERATIONS.
    ------------------------------------------------

 NO OUTPUT CONTROL FOR STRESS PERIOD   28   TIME STEP   28
 
 SOLVING FOR HEAD 
                                                   Max.-Head-Change                         Max.-Flux-Residual
  Residual-Control   Outer-Iter.   Inner-Iter.     Column Row Layer    Maximum-Head-Change  Column Row Layer    Maximum-Flux-Residual          L2-NORM 
          0                 1           2             4    7     1       0.8472358935E-02       4    7    1         0.4430594528E+00      0.1249866588E+01
          0                 2           2             4    7     1      -0.8236215028E-03       4    7    1        -0.4430602209E-01      0.1265335626E+00
          0                 3           1             5    8     1       0.6401782526E-04       5    8    1         0.3395393490E-02      0.9180444749E-02

    ------------------------------------------------
       NWT REQUIRED            3 OUTER ITERATIONS 
       AND A TOTAL OF          5 INNER ITERATIONS.
    ------------------------------------------------

 NO OUTPUT CONTROL FOR STRESS PERIOD   28   TIME STEP   29
 
 SOLVING FOR HEAD 
                                                   Max.-Head-Change                         Max.-Flux-Residual
  Residual-Control   Outer-Iter.   Inner-Iter.     Column Row Layer    Maximum-Head-Change  Column Row Layer    Maximum-Flux-Residual          L2-NORM 
          0                 1           2             4    7     1       0.8418553992E-02       4    7    1         0.4402375675E+00      0.1243681264E+01
          0                 2           2             4    7     1      -0.8183920182E-03       4    7    1        -0.4402383243E-01      0.1259005395E+00
          0                 3           1             5    8     1       0.6347707468E-04       5    8    1         0.3366323980E-02      0.9132222256E-02

    ------------------------------------------------
       NWT REQUIRED            3 OUTER ITERATIONS 
       AND A TOTAL OF          5 INNER ITERATIONS.
    ------------------------------------------------

 NO OUTPUT CONTROL FOR STRESS PERIOD   28   TIME STEP   30



 STREAM LISTING     PERIOD     28   STEP       30

 LAYER ROW COL. STREAM  RCH.  FLOW INTO     FLOW TO   FLOW OUT OF   OVRLND.     DIRECT     STREAM       STREAM     STREAM     STREAM   STREAMBED  STREAMBED
                SEG.NO.  NO.  STRM. RCH.    AQUIFER    STRM. RCH.    RUNOFF     PRECIP       ET          HEAD       DEPTH      WIDTH   CONDCTNC.   GRADIENT

   1    1    1     1     1    2.8874E+01  2.6239E-01   2.8612E+01  0.000E+00  0.000E+00  0.000E+00  1.09428E+03  1.233E+00  1.377E+01  6.198E-02  1.411E+00
   1    2    2     1     2    2.8612E+01  4.0592E-01   2.8206E+01  0.000E+00  0.000E+00  0.000E+00  1.08929E+03  1.229E+00  1.371E+01  9.599E-02  1.410E+00
   1    3    3     1     3    2.8206E+01  3.4575E-01   2.7860E+01  0.000E+00  0.000E+00  0.000E+00  1.08364E+03  1.224E+00  1.364E+01  8.186E-02  1.408E+00
   1    3    4     1     4    2.7860E+01  3.1803E-01   2.7542E+01  0.000E+00  0.000E+00  0.000E+00  1.07863E+03  1.219E+00  1.358E+01  7.538E-02  1.406E+00
   1    4    5     2     1    2.5542E+01  3.2904E-01   2.5213E+01  0.000E+00  0.000E+00  0.000E+00  1.07315E+03  1.218E+00  1.200E+01  7.800E-02  1.406E+00
   1    5    6     2     2    2.5213E+01  2.5260E-01   2.4960E+01  0.000E+00  0.000E+00  0.000E+00  1.06772E+03  1.210E+00  1.200E+01  6.000E-02  1.403E+00
   1    6    6     2     3    2.4960E+01  2.5217E-01   2.4708E+01  0.000E+00  0.000E+00  0.000E+00  1.06300E+03  1.203E+00  1.200E+01  6.000E-02  1.401E+00
   1    7    6     2     4    2.4708E+01  2.5172E-01   2.4457E+01  0.000E+00  0.000E+00  0.000E+00  1.05827E+03  1.195E+00  1.200E+01  6.000E-02  1.398E+00
   1    8    6     2     5    2.4457E+01  2.5128E-01   2.4205E+01  0.000E+00  0.000E+00  0.000E+00  1.05355E+03  1.188E+00  1.200E+01  6.000E-02  1.396E+00
   1    3    5     3     1    2.0000E+00  2.8252E-01   1.7175E+00  0.000E+00  0.000E+00  0.000E+00  1.07555E+03  1.909E+00  9.636E+00  7.227E-02  1.955E+00
   1    3    6     3     2    1.7175E+00  2.4905E-01   1.4684E+00  0.000E+00  0.000E+00  0.000E+00  1.07264E+03  1.727E+00  8.909E+00  6.682E-02  1.864E+00
   1    3    7     3     3    1.4684E+00  1.9718E-01   1.2712E+00  0.000E+00  0.000E+00  0.000E+00  1.06987E+03  1.555E+00  8.218E+00  5.547E-02  1.777E+00
   1    4    8     3     4    1.2712E+00  2.2567E-01   1.0456E+00  0.000E+00  0.000E+00  0.000E+00  1.06682E+03  1.364E+00  7.455E+00  6.709E-02  1.682E+00
   1    5    8     3     5    1.0456E+00  1.5790E-01   8.8768E-01  0.000E+00  0.000E+00  0.000E+00  1.06362E+03  1.164E+00  6.655E+00  4.991E-02  1.582E+00
   1    6    8     3     6    8.8768E-01  5.5980E-02   8.3170E-01  0.000E+00  0.000E+00  0.000E+00  1.06158E+03  1.036E+00  6.145E+00  1.844E-02  1.518E+00
   1    5   10     4     1    1.0000E+01  9.0919E-02   9.9091E+00  0.000E+00  0.000E+00  0.000E+00  1.07836E+03  6.368E-01  1.000E+01  2.500E-02  1.212E+00
   1    5    9     4     2    9.9091E+00  1.8158E-01   9.7275E+00  0.000E+00  0.000E+00  0.000E+00  1.07154E+03  6.315E-01  1.000E+01  5.000E-02  1.211E+00
   1    6    8     4     3    9.7275E+00  1.2689E-01   9.6006E+00  0.000E+00  0.000E+00  0.000E+00  1.06381E+03  6.256E-01  1.000E+01  3.500E-02  1.209E+00
   1    6    8     5     1    1.0432E+01  2.2686E-01   1.0205E+01  0.000E+00  0.000E+00  0.000E+00  1.05868E+03  6.790E-01  1.542E+01  6.166E-02  1.226E+00
   1    7    7     5     2    1.0205E+01  2.7894E-01   9.9265E+00  0.000E+00  0.000E+00  0.000E+00  1.05417E+03  6.732E-01  1.519E+01  7.594E-02  1.224E+00
   1    8    7     5     3    9.9265E+00  1.9221E-01   9.7343E+00  0.000E+00  0.000E+00  0.000E+00  1.04992E+03  6.676E-01  1.497E+01  5.241E-02  1.223E+00
   1    8    6     5     4    9.7343E+00  1.3577E-01   9.5985E+00  0.000E+00  0.000E+00  0.000E+00  1.04691E+03  6.637E-01  1.482E+01  3.706E-02  1.221E+00
   1    9    6     6     1    3.3804E+01  2.6759E-01   3.3536E+01  0.000E+00  0.000E+00  0.000E+00  1.04419E+03  1.460E+00  1.200E+01  6.000E-02  1.487E+00
   1   10    7     6     2    3.3536E+01  2.6717E-01   3.3269E+01  0.000E+00  0.000E+00  0.000E+00  1.03963E+03  1.453E+00  1.200E+01  6.000E-02  1.484E+00
   1   11    7     6     3    3.3269E+01  2.6676E-01   3.3002E+01  0.000E+00  0.000E+00  0.000E+00  1.03508E+03  1.446E+00  1.200E+01  6.000E-02  1.482E+00
   1   12    7     6     4    3.3002E+01  2.6634E-01   3.2736E+01  0.000E+00  0.000E+00  0.000E+00  1.03053E+03  1.439E+00  1.200E+01  6.000E-02  1.480E+00
   1   13    7     6     5    3.2736E+01  1.8409E-02   3.2717E+01  0.000E+00  0.000E+00  0.000E+00  1.02734E+03  1.435E+00  1.200E+01  2.400E-02  2.557E-01
   1   14    9     7     1    1.5000E+02  1.3855E+00   1.4861E+02  0.000E+00  0.000E+00  0.000E+00  1.03987E+03  2.288E+00  5.529E+01  5.593E-01  8.258E-01
   1   13    8     7     2    1.4861E+02  1.9947E+00   1.4662E+02  0.000E+00  0.000E+00  0.000E+00  1.03478E+03  2.279E+00  5.525E+01  6.147E-01  1.082E+00
   1   13    7     7     3    1.4662E+02  1.7369E+00   1.4488E+02  0.000E+00  0.000E+00  0.000E+00  1.02969E+03  2.269E+00  5.521E+01  5.584E-01  1.037E+00
   1   13    6     8     1    1.7760E+02  1.2126E+00   1.7639E+02  0.000E+00  0.000E+00  0.000E+00  1.02487E+03  2.997E+00  4.346E+01  4.429E-01  9.127E-01
   1   13    5     8     2    1.7639E+02  4.2788E-01   1.7596E+02  0.000E+00  0.000E+00  0.000E+00  1.01862E+03  2.992E+00  4.338E+01  4.421E-01  3.226E-01
   1   13    4     8     3    1.7596E+02 -1.6289E+00   1.7759E+02  0.000E+00  0.000E+00  0.000E+00  1.01237E+03  2.996E+00  4.344E+01  4.427E+00 -1.227E-01
   1   13    3     8     4    1.7759E+02 -3.2411E+00   1.8083E+02  0.000E+00  0.000E+00  0.000E+00  1.00614E+03  3.011E+00  4.366E+01  4.449E+00 -2.428E-01
   1   13    2     8     5    1.8083E+02 -2.4404E+00   1.8327E+02  0.000E+00  0.000E+00  0.000E+00  9.99904E+02  3.029E+00  4.392E+01  4.476E+00 -1.818E-01
   1   13    1     8     6    1.8327E+02 -1.9107E+00   1.8518E+02  0.000E+00  0.000E+00  0.000E+00  9.94918E+02  3.043E+00  4.412E+01  2.697E+00 -2.361E-01
   1    8    6     9     1    0.0000E+00  0.0000E+00   0.0000E+00  0.000E+00  0.000E+00  0.000E+00  1.07875E+03  0.000E+00  4.000E+00  0.000E+00  1.000E+00
   1    8    5     9     2    0.0000E+00  0.0000E+00   0.0000E+00  0.000E+00  0.000E+00  0.000E+00  1.07825E+03  0.000E+00  4.000E+00  0.000E+00  1.000E+00





UNSATURATED ZONE PACKAGE VOLUMETRIC BUDGET FOR  TIME STEP    30 STRESS PERIOD   28
  ------------------------------------------------------------------------------



     CUMULATIVE VOLUMES      L**3       RATES FOR THIS TIME STEP      L**3/T
     ------------------                 ------------------------

           IN:                                      IN:
           ---                                      ---
        INFILTRATION =  1121722938.8718          INFILTRATION =           0.8475

          OUT:                                     OUT:
          ----                                     ----
              UZF ET =   868211840.3243                UZF ET =           0.7500
        UZF RECHARGE =      304128.7004          UZF RECHARGE =           0.0853

            IN - OUT =   253206969.8470              IN - OUT =       1.2165E-02

          STORAGE:                                 STORAGE:
          --------                                 --------
      STORAGE CHANGE =   253211208.4337        STORAGE CHANGE =       1.2165E-02

 PERCENT DISCREPANCY IS DIFFERENCE BETWEEN IN-OUT MINUS CHANGE IN STORAGE
 DIVIDED BY THE AVERAGE OF IN AND OUT TIMES 100

 PERCENT DISCREPANCY =          -0.00     PERCENT DISCREPANCY =           0.00






1
  VOLUMETRIC BUDGET FOR AGRICULTURAL FIELDS AT  END OF TIME STEP   30, STRESS PERIOD  28
  ------------------------------------------------------------------------------

     CUMULATIVE VOLUMES      L**3       RATES FOR THIS TIME STEP      L**3/T
     ------------------                 ------------------------

           IN:                                      IN:
           ---                                      ---
               AG WELLS  =   697628416.0000                 AG WELLS  =           0.0000
      DIVERSION SEGMENTS =   363935712.0000        DIVERSION SEGMENTS =           0.0000
       IRRIGATION PONDS  =           0.0000         IRRIGATION PONDS  =           0.0000
           GW IRRIGATION =           0.0000             GW IRRIGATION =           0.0000
           SW IRRIGATION =           0.0000             SW IRRIGATION =           0.0000
        SYSTEM LOSSES GW =           0.0000          SYSTEM LOSSES GW =           0.0000
        SYSTEM LOSSES SW =           0.0000          SYSTEM LOSSES SW =           0.0000

                TOTAL IN =  1061564160.0000                  TOTAL IN =           0.0000

          OUT:                                     OUT:
          ----                                     ----
               AG WELLS  =           0.0000                 AG WELLS  =           0.0000
      DIVERSION SEGMENTS =           0.0000        DIVERSION SEGMENTS =           0.0000
       IRRIGATION PONDS  =           0.0000         IRRIGATION PONDS  =           0.0000
           GW IRRIGATION =   697628416.0000             GW IRRIGATION =           0.0000
           SW IRRIGATION =   363942752.0000             SW IRRIGATION =           0.0000
        SYSTEM LOSSES GW =           0.0000          SYSTEM LOSSES GW =           0.0000
        SYSTEM LOSSES SW =           0.0000          SYSTEM LOSSES SW =           0.0000

               TOTAL OUT =  1061571200.0000                 TOTAL OUT =           0.0000

                IN - OUT =       -7040.0000                  IN - OUT =           0.0000

     PERCENT DISCREPANCY =          -0.00         PERCENT DISCREPANCY =           0.00



1
  VOLUMETRIC BUDGET FOR ENTIRE MODEL AT END OF TIME STEP   30, STRESS PERIOD  28
  ------------------------------------------------------------------------------

     CUMULATIVE VOLUMES      L**3       RATES FOR THIS TIME STEP      L**3/T
     ------------------                 ------------------------

           IN:                                      IN:
           ---                                      ---
             STORAGE     =  1105506176.0000               STORAGE     =           2.2636
       CONSTANT HEAD     =           0.0000         CONSTANT HEAD     =           0.0000
     HEAD DEP BOUNDS     =    20493518.0000       HEAD DEP BOUNDS     =           0.2891
      STREAM LEAKAGE     =   841426240.0000        STREAM LEAKAGE     =          12.9142
        UZF RECHARGE     =      304128.6562          UZF RECHARGE     =       8.5335E-02
               GW ET     =           0.0000                 GW ET     =           0.0000
     SURFACE LEAKAGE     =           0.0000       SURFACE LEAKAGE     =           0.0000
           AG WELLS      =           0.0000             AG WELLS      =           0.0000

                TOTAL IN =  1967730176.0000                  TOTAL IN =          15.5523

          OUT:                                     OUT:
          ----                                     ----
             STORAGE     =   539501184.0000               STORAGE     =           6.0420
       CONSTANT HEAD     =           0.0000         CONSTANT HEAD     =           0.0000
     HEAD DEP BOUNDS     =    20463504.0000       HEAD DEP BOUNDS     =           0.2898
      STREAM LEAKAGE     =   710146944.0000        STREAM LEAKAGE     =           9.2211
        UZF RECHARGE     =           0.0000          UZF RECHARGE     =           0.0000
               GW ET     =           0.0000                 GW ET     =           0.0000
     SURFACE LEAKAGE     =           0.0000       SURFACE LEAKAGE     =           0.0000
           AG WELLS      =   697628416.0000             AG WELLS      =           0.0000

               TOTAL OUT =  1967740032.0000                 TOTAL OUT =          15.5529

                IN - OUT =       -9856.0000                  IN - OUT =      -5.8460E-04

     PERCENT DISCREPANCY =          -0.00         PERCENT DISCREPANCY =          -0.00






         TIME SUMMARY AT END OF TIME STEP   30 IN STRESS PERIOD   28
                    SECONDS     MINUTES      HOURS       DAYS        YEARS
                    -----------------------------------------------------------
   TIME STEP LENGTH  87667.      1461.1      24.352      1.0147     2.77799E-03
 STRESS PERIOD TIME 2.63000E+06  43833.      730.56      30.440     8.33397E-02
         TOTAL TIME 7.10967E+07 1.18494E+06  19749.      822.88      2.2529    
1
1
                            STRESS PERIOD NO.   29, LENGTH =   2630000.    
                            -----------------------------------------------

                              NUMBER OF TIME STEPS =    30

                               MULTIPLIER FOR DELT =     1.000

                            INITIAL TIME STEP SIZE =   87666.66    

 REUSING NON-PARAMETER GHB CELLS FROM LAST STRESS PERIOD

      2 GHB CELLS

 REUSING STREAM SEGMENT DATA FROM LAST STRESS PERIOD



            AREAL INFILTRATION RATE
 READING ON UNIT   19 WITH FORMAT: (FREE)              

            1           2           3           4           5           6           7           8           9          10
 ........................................................................................................................
   1   1.0000E-10  2.0000E-10   0.000       0.000       0.000       0.000       0.000       0.000       0.000       0.000    
   2   2.0000E-10  1.0000E-10  2.0000E-10   0.000       0.000      8.0000E-10  8.0000E-10  5.0000E-10   0.000       0.000    
   3    0.000      5.0000E-10  1.0000E-10  1.0000E-10  8.0000E-10  8.0000E-10  5.0000E-10  5.0000E-10   0.000       0.000    
   4   8.0000E-10  5.0000E-10  1.0000E-10  1.0000E-10  1.0000E-10  1.0000E-10  1.0000E-10  1.0000E-10  2.0000E-10   0.000    
   5   8.0000E-10  5.0000E-10  1.0000E-10  1.0000E-10  1.0000E-10  1.0000E-10  1.0000E-10  1.0000E-10  1.0000E-10  1.0000E-10
   6   8.0000E-10  5.0000E-10  5.0000E-10  2.0000E-10  2.0000E-10  1.0000E-10  1.0000E-10  1.0000E-10  1.0000E-10  5.0000E-10
   7   8.0000E-10  5.0000E-10  5.0000E-10  2.0000E-10  2.0000E-10  1.0000E-10  1.0000E-10  2.0000E-10  2.0000E-10   0.000    
   8    0.000      5.0000E-10  5.0000E-10  2.0000E-10  2.0000E-10  1.0000E-10  1.0000E-10  2.0000E-10  5.0000E-10   0.000    
   9    0.000      5.0000E-10  5.0000E-10  2.0000E-10  2.0000E-10  1.0000E-10  1.0000E-10  2.0000E-10  5.0000E-10   0.000    
  10    0.000      5.0000E-10  5.0000E-10  2.0000E-10  2.0000E-10  1.0000E-10  1.0000E-10  2.0000E-10  5.0000E-10  8.0000E-10
  11    0.000      1.0000E-10  1.0000E-10  1.0000E-10  1.0000E-10  1.0000E-10  1.0000E-10  2.0000E-10  5.0000E-10   0.000    
  12   1.0000E-10  1.0000E-10  1.0000E-10  1.0000E-10  1.0000E-10  1.0000E-10  1.0000E-10  1.0000E-10  2.0000E-10   0.000    
  13   1.0000E-10  1.0000E-10  2.0000E-10  2.0000E-10  2.0000E-10  2.0000E-10  2.0000E-10  1.0000E-10  1.0000E-10   0.000    
  14    0.000      2.0000E-10  5.0000E-10  5.0000E-10  5.0000E-10  5.0000E-10  5.0000E-10  2.0000E-10  1.0000E-10   0.000    
  15    0.000       0.000      8.0000E-10  8.0000E-10  8.0000E-10  8.0000E-10   0.000       0.000       0.000       0.000    

                  ET RATE =  2.500000E-08

 USING ET EXTINCTION DEPTH FROM PREVIOUS STRESS PERIOD. CURRENT PERIOD IS:      29

 USING EXTINCTION WATER CONTENT FROM PREVIOUS STRESS PERIOD. CURRENT PERIOD IS:      29

 USING AIR ENTRY PRESSURE FROM PREVIOUS STRESS PERIOD. CURRENT PERIOD IS:      29

 USING ROOT PRESSURE HEAD FROM PREVIOUS STRESS PERIOD. CURRENT PERIOD IS:      29

 USING ROOT ACTIVITY FROM PREVIOUS STRESS PERIOD. CURRENT PERIOD IS:      29

 PROCESSING AG STRESS PERIOD DATA

 READING AG STRESS PERIOD DATA

 READING IRRIGATION SEGMENT

 READING IRRIGATION WELL

 READING SUPPLEMENTAL WELL

 NO IRRPOND OR REUSING IRRPOND DATA FROM LAST STRESS PERIOD

 END PROCESSING AG STRESS PERIOD DATA OPTIONS
 
 SOLVING FOR HEAD 
                                                   Max.-Head-Change                         Max.-Flux-Residual
  Residual-Control   Outer-Iter.   Inner-Iter.     Column Row Layer    Maximum-Head-Change  Column Row Layer    Maximum-Flux-Residual          L2-NORM 
          0                 1           2             4    7     1       0.8365351063E-02       4    7    1         0.4374475926E+00      0.1237587124E+01
          0                 2           2             4    7     1      -0.8132209670E-03       4    7    1        -0.4374483381E-01      0.1252769069E+00
          0                 3           1             5    8     1       0.6295219877E-04       5    8    1         0.3338127217E-02      0.9084767974E-02

    ------------------------------------------------
       NWT REQUIRED            3 OUTER ITERATIONS 
       AND A TOTAL OF          5 INNER ITERATIONS.
    ------------------------------------------------

 NO OUTPUT CONTROL FOR STRESS PERIOD   29   TIME STEP    1
 
 SOLVING FOR HEAD 
                                                   Max.-Head-Change                         Max.-Flux-Residual
  Residual-Control   Outer-Iter.   Inner-Iter.     Column Row Layer    Maximum-Head-Change  Column Row Layer    Maximum-Flux-Residual          L2-NORM 
          0                 1           2             4    7     1       0.8312340335E-02       4    7    1         0.4346741913E+00      0.1315171721E+01
          0                 2           2             4    7     1      -0.8080692327E-03       4    7    1        -0.4346749269E-01      0.1323605929E+00
          0                 3           1             5    8     1       0.6234963525E-04       5    8    1         0.3308737314E-02      0.9781406152E-02

    ------------------------------------------------
       NWT REQUIRED            3 OUTER ITERATIONS 
       AND A TOTAL OF          5 INNER ITERATIONS.
    ------------------------------------------------

 NO OUTPUT CONTROL FOR STRESS PERIOD   29   TIME STEP    2
 
 SOLVING FOR HEAD 
                                                   Max.-Head-Change                         Max.-Flux-Residual
  Residual-Control   Outer-Iter.   Inner-Iter.     Column Row Layer    Maximum-Head-Change  Column Row Layer    Maximum-Flux-Residual          L2-NORM 
          0                 1           2             4    7     1       0.8259762889E-02       4    7    1         0.4319253640E+00      0.1345790224E+01
          0                 2           2             4    7     1      -0.8029596870E-03       4    7    1        -0.4319260901E-01      0.1352009609E+00
          0                 3           1             5    8     1       0.6174184290E-04       5    8    1         0.3276825878E-02      0.9684581689E-02

    ------------------------------------------------
       NWT REQUIRED            3 OUTER ITERATIONS 
       AND A TOTAL OF          5 INNER ITERATIONS.
    ------------------------------------------------

 NO OUTPUT CONTROL FOR STRESS PERIOD   29   TIME STEP    3
 
 SOLVING FOR HEAD 
                                                   Max.-Head-Change                         Max.-Flux-Residual
  Residual-Control   Outer-Iter.   Inner-Iter.     Column Row Layer    Maximum-Head-Change  Column Row Layer    Maximum-Flux-Residual          L2-NORM 
          0                 1           2             4    7     1       0.8207481008E-02       4    7    1         0.4291916749E+00      0.1320105829E+01
          0                 2           2             4    7     1      -0.7978787218E-03       4    7    1        -0.4291923915E-01      0.1327266416E+00
          0                 3           1             5    8     1       0.6115545531E-04       5    8    1         0.3245217122E-02      0.9519518869E-02

    ------------------------------------------------
       NWT REQUIRED            3 OUTER ITERATIONS 
       AND A TOTAL OF          5 INNER ITERATIONS.
    ------------------------------------------------

 NO OUTPUT CONTROL FOR STRESS PERIOD   29   TIME STEP    4
 
 SOLVING FOR HEAD 
                                                   Max.-Head-Change                         Max.-Flux-Residual
  Residual-Control   Outer-Iter.   Inner-Iter.     Column Row Layer    Maximum-Head-Change  Column Row Layer    Maximum-Flux-Residual          L2-NORM 
          0                 1           2             4    7     1       0.8155640213E-02       4    7    1         0.4264806445E+00      0.1297278903E+01
          0                 2           2             4    7     1      -0.7928405033E-03       4    7    1        -0.4264813516E-01      0.1305247422E+00
          0                 3           1             5    8     1       0.6058913425E-04       5    8    1         0.3214707110E-02      0.9371271562E-02

    ------------------------------------------------
       NWT REQUIRED            3 OUTER ITERATIONS 
       AND A TOTAL OF          5 INNER ITERATIONS.
    ------------------------------------------------

 NO OUTPUT CONTROL FOR STRESS PERIOD   29   TIME STEP    5
 
 SOLVING FOR HEAD 
                                                   Max.-Head-Change                         Max.-Flux-Residual
  Residual-Control   Outer-Iter.   Inner-Iter.     Column Row Layer    Maximum-Head-Change  Column Row Layer    Maximum-Flux-Residual          L2-NORM 
          0                 1           2             4    7     1       0.8103967705E-02       4    7    1         0.4237778451E+00      0.1276904481E+01
          0                 2           2             4    7     1      -0.7878185058E-03       4    7    1        -0.4237785429E-01      0.1285557845E+00
          0                 3           1             5    8     1       0.6004155527E-04       5    8    1         0.3185225442E-02      0.9238532057E-02

    ------------------------------------------------
       NWT REQUIRED            3 OUTER ITERATIONS 
       AND A TOTAL OF          5 INNER ITERATIONS.
    ------------------------------------------------

 NO OUTPUT CONTROL FOR STRESS PERIOD   29   TIME STEP    6
 
 SOLVING FOR HEAD 
                                                   Max.-Head-Change                         Max.-Flux-Residual
  Residual-Control   Outer-Iter.   Inner-Iter.     Column Row Layer    Maximum-Head-Change  Column Row Layer    Maximum-Flux-Residual          L2-NORM 
          0                 1           2             4    7     1       0.8052748377E-02       4    7    1         0.4210984282E+00      0.1258654457E+01
          0                 2           2             4    7     1      -0.7828404380E-03       4    7    1        -0.4210991168E-01      0.1267900517E+00
          0                 3           1             5    8     1       0.5951319444E-04       5    8    1         0.3156796329E-02      0.9118846873E-02

    ------------------------------------------------
       NWT REQUIRED            3 OUTER ITERATIONS 
       AND A TOTAL OF          5 INNER ITERATIONS.
    ------------------------------------------------

 NO OUTPUT CONTROL FOR STRESS PERIOD   29   TIME STEP    7
 
 SOLVING FOR HEAD 
                                                   Max.-Head-Change                         Max.-Flux-Residual
  Residual-Control   Outer-Iter.   Inner-Iter.     Column Row Layer    Maximum-Head-Change  Column Row Layer    Maximum-Flux-Residual          L2-NORM 
          0                 1           2             4    7     1       0.8001844020E-02       4    7    1         0.4184351928E+00      0.1242219535E+01
          0                 2           2             4    7     1      -0.7778928915E-03       4    7    1        -0.4184358722E-01      0.1251962722E+00
          0                 3           1             5    8     1       0.5899954551E-04       5    8    1         0.3129172047E-02      0.9010873147E-02

    ------------------------------------------------
       NWT REQUIRED            3 OUTER ITERATIONS 
       AND A TOTAL OF          5 INNER ITERATIONS.
    ------------------------------------------------

 NO OUTPUT CONTROL FOR STRESS PERIOD   29   TIME STEP    8
 
 SOLVING FOR HEAD 
                                                   Max.-Head-Change                         Max.-Flux-Residual
  Residual-Control   Outer-Iter.   Inner-Iter.     Column Row Layer    Maximum-Head-Change  Column Row Layer    Maximum-Flux-Residual          L2-NORM 
          0                 1           2             4    7     1       0.7951261692E-02       4    7    1         0.4157882950E+00      0.1227355707E+01
          0                 2           2             4    7     1      -0.7729765342E-03       4    7    1        -0.4157889651E-01      0.1237522541E+00
          0                 3           1             5    8     1       0.5850297117E-04       5    8    1         0.3102483854E-02      0.8912238644E-02

    ------------------------------------------------
       NWT REQUIRED            3 OUTER ITERATIONS 
       AND A TOTAL OF          5 INNER ITERATIONS.
    ------------------------------------------------

 NO OUTPUT CONTROL FOR STRESS PERIOD   29   TIME STEP    9
 
 SOLVING FOR HEAD 
                                                   Max.-Head-Change                         Max.-Flux-Residual
  Residual-Control   Outer-Iter.   Inner-Iter.     Column Row Layer    Maximum-Head-Change  Column Row Layer    Maximum-Flux-Residual          L2-NORM 
          0                 1           2             4    7     1       0.7901142040E-02       4    7    1         0.4131654268E+00      0.1213844586E+01
          0                 2           2             4    7     1      -0.7681050684E-03       4    7    1        -0.4131660878E-01      0.1224362329E+00
          0                 3           1             5    8     1       0.5802083862E-04       5    8    1         0.3076583091E-02      0.8822564916E-02

    ------------------------------------------------
       NWT REQUIRED            3 OUTER ITERATIONS 
       AND A TOTAL OF          5 INNER ITERATIONS.
    ------------------------------------------------

 NO OUTPUT CONTROL FOR STRESS PERIOD   29   TIME STEP   10
 
 SOLVING FOR HEAD 
                                                   Max.-Head-Change                         Max.-Flux-Residual
  Residual-Control   Outer-Iter.   Inner-Iter.     Column Row Layer    Maximum-Head-Change  Column Row Layer    Maximum-Flux-Residual          L2-NORM 
          0                 1           2             4    7     1       0.7851207711E-02       4    7    1         0.4105519048E+00      0.1201486602E+01
          0                 2           2             4    7     1      -0.7632515235E-03       4    7    1        -0.4105525572E-01      0.1212308854E+00
          0                 3           1             5    8     1       0.5755217404E-04       5    8    1         0.3051421991E-02      0.8738487372E-02

    ------------------------------------------------
       NWT REQUIRED            3 OUTER ITERATIONS 
       AND A TOTAL OF          5 INNER ITERATIONS.
    ------------------------------------------------

 NO OUTPUT CONTROL FOR STRESS PERIOD   29   TIME STEP   11
 
 SOLVING FOR HEAD 
                                                   Max.-Head-Change                         Max.-Flux-Residual
  Residual-Control   Outer-Iter.   Inner-Iter.     Column Row Layer    Maximum-Head-Change  Column Row Layer    Maximum-Flux-Residual          L2-NORM 
          0                 1           2             4    7     1       0.7801744905E-02       4    7    1         0.4079626475E+00      0.1190135165E+01
          0                 2           2             4    7     1      -0.7584437296E-03       4    7    1        -0.4079632907E-01      0.1201177886E+00
          0                 3           1             5    8     1       0.5709789160E-04       5    8    1         0.3027045076E-02      0.8661693075E-02

    ------------------------------------------------
       NWT REQUIRED            3 OUTER ITERATIONS 
       AND A TOTAL OF          5 INNER ITERATIONS.
    ------------------------------------------------

 NO OUTPUT CONTROL FOR STRESS PERIOD   29   TIME STEP   12
 
 SOLVING FOR HEAD 
                                                   Max.-Head-Change                         Max.-Flux-Residual
  Residual-Control   Outer-Iter.   Inner-Iter.     Column Row Layer    Maximum-Head-Change  Column Row Layer    Maximum-Flux-Residual          L2-NORM 
          0                 1           2             4    7     1       0.7752747441E-02       4    7    1         0.4053978450E+00      0.1179645907E+01
          0                 2           2             4    7     1      -0.7536811073E-03       4    7    1        -0.4053984795E-01      0.1190884959E+00
          0                 3           1             5    8     1       0.5665545742E-04       5    8    1         0.3003315971E-02      0.8589428888E-02

    ------------------------------------------------
       NWT REQUIRED            3 OUTER ITERATIONS 
       AND A TOTAL OF          5 INNER ITERATIONS.
    ------------------------------------------------

 NO OUTPUT CONTROL FOR STRESS PERIOD   29   TIME STEP   13
 
 SOLVING FOR HEAD 
                                                   Max.-Head-Change                         Max.-Flux-Residual
  Residual-Control   Outer-Iter.   Inner-Iter.     Column Row Layer    Maximum-Head-Change  Column Row Layer    Maximum-Flux-Residual          L2-NORM 
          0                 1           2             4    7     1       0.7703948463E-02       4    7    1         0.4028425251E+00      0.1169902940E+01
          0                 2           2             4    7     1      -0.7489377036E-03       4    7    1        -0.4028431507E-01      0.1181343072E+00
          0                 3           1             5    8     1       0.5622423647E-04       5    8    1         0.2980197237E-02      0.8526955949E-02

    ------------------------------------------------
       NWT REQUIRED            3 OUTER ITERATIONS 
       AND A TOTAL OF          5 INNER ITERATIONS.
    ------------------------------------------------

 NO OUTPUT CONTROL FOR STRESS PERIOD   29   TIME STEP   14
 
 SOLVING FOR HEAD 
                                                   Max.-Head-Change                         Max.-Flux-Residual
  Residual-Control   Outer-Iter.   Inner-Iter.     Column Row Layer    Maximum-Head-Change  Column Row Layer    Maximum-Flux-Residual          L2-NORM 
          0                 1           2             4    7     1       0.7655621512E-02       4    7    1         0.4003121522E+00      0.1160803561E+01
          0                 2           2             4    7     1      -0.7442401321E-03       4    7    1        -0.4003127692E-01      0.1172328533E+00
          0                 3           1             5    8     1       0.5580354131E-04       5    8    1         0.2957654280E-02      0.8459991526E-02

    ------------------------------------------------
       NWT REQUIRED            3 OUTER ITERATIONS 
       AND A TOTAL OF          5 INNER ITERATIONS.
    ------------------------------------------------

 NO OUTPUT CONTROL FOR STRESS PERIOD   29   TIME STEP   15
 
 SOLVING FOR HEAD 
                                                   Max.-Head-Change                         Max.-Flux-Residual
  Residual-Control   Outer-Iter.   Inner-Iter.     Column Row Layer    Maximum-Head-Change  Column Row Layer    Maximum-Flux-Residual          L2-NORM 
          0                 1           2             4    7     1       0.7607633265E-02       4    7    1         0.3977989328E+00      0.1152264424E+01
          0                 2           2             4    7     1      -0.7395754150E-03       4    7    1        -0.3977995412E-01      0.1163884990E+00
          0                 3           1             5    8     1       0.5539444518E-04       5    8    1         0.2935744008E-02      0.8399614523E-02

    ------------------------------------------------
       NWT REQUIRED            3 OUTER ITERATIONS 
       AND A TOTAL OF          5 INNER ITERATIONS.
    ------------------------------------------------

 NO OUTPUT CONTROL FOR STRESS PERIOD   29   TIME STEP   16
 
 SOLVING FOR HEAD 
                                                   Max.-Head-Change                         Max.-Flux-Residual
  Residual-Control   Outer-Iter.   Inner-Iter.     Column Row Layer    Maximum-Head-Change  Column Row Layer    Maximum-Flux-Residual          L2-NORM 
          0                 1           2             4    7     1       0.7559986101E-02       4    7    1         0.3953032802E+00      0.1144208239E+01
          0                 2           2             4    7     1      -0.7349438027E-03       4    7    1        -0.3953038803E-01      0.1155886011E+00
          0                 3           1             5    8     1       0.5499466719E-04       5    8    1         0.2914340370E-02      0.8342855995E-02

    ------------------------------------------------
       NWT REQUIRED            3 OUTER ITERATIONS 
       AND A TOTAL OF          5 INNER ITERATIONS.
    ------------------------------------------------

 NO OUTPUT CONTROL FOR STRESS PERIOD   29   TIME STEP   17
 
 SOLVING FOR HEAD 
                                                   Max.-Head-Change                         Max.-Flux-Residual
  Residual-Control   Outer-Iter.   Inner-Iter.     Column Row Layer    Maximum-Head-Change  Column Row Layer    Maximum-Flux-Residual          L2-NORM 
          0                 1           2             4    7     1       0.7512812607E-02       4    7    1         0.3928326422E+00      0.1136568413E+01
          0                 2           2             4    7     1      -0.7303581953E-03       4    7    1        -0.3928332338E-01      0.1148296385E+00
          0                 3           1             5    8     1       0.5460369511E-04       5    8    1         0.2893416477E-02      0.8288901158E-02

    ------------------------------------------------
       NWT REQUIRED            3 OUTER ITERATIONS 
       AND A TOTAL OF          5 INNER ITERATIONS.
    ------------------------------------------------

 NO OUTPUT CONTROL FOR STRESS PERIOD   29   TIME STEP   18
 
 SOLVING FOR HEAD 
                                                   Max.-Head-Change                         Max.-Flux-Residual
  Residual-Control   Outer-Iter.   Inner-Iter.     Column Row Layer    Maximum-Head-Change  Column Row Layer    Maximum-Flux-Residual          L2-NORM 
          0                 1           2             4    7     1       0.7465978641E-02       4    7    1         0.3903792417E+00      0.1129305308E+01
          0                 2           2             4    7     1      -0.7258055365E-03       4    7    1        -0.3903798253E-01      0.1141062273E+00
          0                 3           1             5    8     1       0.5422270671E-04       5    8    1         0.2873036945E-02      0.8237161664E-02

    ------------------------------------------------
       NWT REQUIRED            3 OUTER ITERATIONS 
       AND A TOTAL OF          5 INNER ITERATIONS.
    ------------------------------------------------

 NO OUTPUT CONTROL FOR STRESS PERIOD   29   TIME STEP   19
 
 SOLVING FOR HEAD 
                                                   Max.-Head-Change                         Max.-Flux-Residual
  Residual-Control   Outer-Iter.   Inner-Iter.     Column Row Layer    Maximum-Head-Change  Column Row Layer    Maximum-Flux-Residual          L2-NORM 
          0                 1           2             4    7     1       0.7419485798E-02       4    7    1         0.3879434501E+00      0.1122362491E+01
          0                 2           2             4    7     1      -0.7212859967E-03       4    7    1        -0.3879440252E-01      0.1134135020E+00
          0                 3           1             5    8     1       0.5384952653E-04       5    8    1         0.2853081250E-02      0.8187430835E-02

    ------------------------------------------------
       NWT REQUIRED            3 OUTER ITERATIONS 
       AND A TOTAL OF          5 INNER ITERATIONS.
    ------------------------------------------------

 NO OUTPUT CONTROL FOR STRESS PERIOD   29   TIME STEP   20
 
 SOLVING FOR HEAD 
                                                   Max.-Head-Change                         Max.-Flux-Residual
  Residual-Control   Outer-Iter.   Inner-Iter.     Column Row Layer    Maximum-Head-Change  Column Row Layer    Maximum-Flux-Residual          L2-NORM 
          0                 1           2             4    7     1       0.7373467918E-02       4    7    1         0.3855326748E+00      0.1115705084E+01
          0                 2           2             4    7     1      -0.7168126007E-03       4    7    1        -0.3855332420E-01      0.1127478231E+00
          0                 3           1             5    8     1       0.5348372937E-04       5    8    1         0.2833527656E-02      0.8139623936E-02

    ------------------------------------------------
       NWT REQUIRED            3 OUTER ITERATIONS 
       AND A TOTAL OF          5 INNER ITERATIONS.
    ------------------------------------------------

 NO OUTPUT CONTROL FOR STRESS PERIOD   29   TIME STEP   21
 
 SOLVING FOR HEAD 
                                                   Max.-Head-Change                         Max.-Flux-Residual
  Residual-Control   Outer-Iter.   Inner-Iter.     Column Row Layer    Maximum-Head-Change  Column Row Layer    Maximum-Flux-Residual          L2-NORM 
          0                 1           2             4    7     1       0.7327789940E-02       4    7    1         0.3831392031E+00      0.1109300784E+01
          0                 2           2             4    7     1      -0.7123721985E-03       4    7    1        -0.3831397623E-01      0.1121065480E+00
          0                 3           1             5    8     1       0.5312661195E-04       5    8    1         0.2814446013E-02      0.8093205708E-02

    ------------------------------------------------
       NWT REQUIRED            3 OUTER ITERATIONS 
       AND A TOTAL OF          5 INNER ITERATIONS.
    ------------------------------------------------

 NO OUTPUT CONTROL FOR STRESS PERIOD   29   TIME STEP   22
 
 SOLVING FOR HEAD 
                                                   Max.-Head-Change                         Max.-Flux-Residual
  Residual-Control   Outer-Iter.   Inner-Iter.     Column Row Layer    Maximum-Head-Change  Column Row Layer    Maximum-Flux-Residual          L2-NORM 
          0                 1           2             4    7     1       0.7282450780E-02       4    7    1         0.3807633590E+00      0.1103116464E+01
          0                 2           2             4    7     1      -0.7079646891E-03       4    7    1        -0.3807639104E-01      0.1114863406E+00
          0                 3           1             5    8     1       0.5277772742E-04       5    8    1         0.2795811937E-02      0.8048387652E-02

    ------------------------------------------------
       NWT REQUIRED            3 OUTER ITERATIONS 
       AND A TOTAL OF          5 INNER ITERATIONS.
    ------------------------------------------------

 NO OUTPUT CONTROL FOR STRESS PERIOD   29   TIME STEP   23
 
 SOLVING FOR HEAD 
                                                   Max.-Head-Change                         Max.-Flux-Residual
  Residual-Control   Outer-Iter.   Inner-Iter.     Column Row Layer    Maximum-Head-Change  Column Row Layer    Maximum-Flux-Residual          L2-NORM 
          0                 1           2             4    7     1       0.7237455319E-02       4    7    1         0.3784050858E+00      0.1097130368E+01
          0                 2           2             4    7     1      -0.7035905630E-03       4    7    1        -0.3784056294E-01      0.1108853004E+00
          0                 3           1             5    8     1       0.5243502290E-04       5    8    1         0.2777512104E-02      0.8005001636E-02

    ------------------------------------------------
       NWT REQUIRED            3 OUTER ITERATIONS 
       AND A TOTAL OF          5 INNER ITERATIONS.
    ------------------------------------------------

 NO OUTPUT CONTROL FOR STRESS PERIOD   29   TIME STEP   24
 
 SOLVING FOR HEAD 
                                                   Max.-Head-Change                         Max.-Flux-Residual
  Residual-Control   Outer-Iter.   Inner-Iter.     Column Row Layer    Maximum-Head-Change  Column Row Layer    Maximum-Flux-Residual          L2-NORM 
          0                 1           2             4    7     1       0.7192933511E-02       4    7    1         0.3760719623E+00      0.1091317545E+01
          0                 2           2             4    7     1      -0.6992624646E-03       4    7    1        -0.3760724983E-01      0.1103006739E+00
          0                 3           1             5    8     1       0.5209818285E-04       5    8    1         0.2759531004E-02      0.7962643853E-02

    ------------------------------------------------
       NWT REQUIRED            3 OUTER ITERATIONS 
       AND A TOTAL OF          5 INNER ITERATIONS.
    ------------------------------------------------

 NO OUTPUT CONTROL FOR STRESS PERIOD   29   TIME STEP   25
 
 SOLVING FOR HEAD 
                                                   Max.-Head-Change                         Max.-Flux-Residual
  Residual-Control   Outer-Iter.   Inner-Iter.     Column Row Layer    Maximum-Head-Change  Column Row Layer    Maximum-Flux-Residual          L2-NORM 
          0                 1           2             4    7     1       0.7148747131E-02       4    7    1         0.3737560733E+00      0.1085661594E+01
          0                 2           2             4    7     1      -0.6949669370E-03       4    7    1        -0.3737566018E-01      0.1097311840E+00
          0                 3           1             5    8     1       0.5176857989E-04       5    8    1         0.2741943524E-02      0.7921061471E-02

    ------------------------------------------------
       NWT REQUIRED            3 OUTER ITERATIONS 
       AND A TOTAL OF          5 INNER ITERATIONS.
    ------------------------------------------------

 NO OUTPUT CONTROL FOR STRESS PERIOD   29   TIME STEP   26
 
 SOLVING FOR HEAD 
                                                   Max.-Head-Change                         Max.-Flux-Residual
  Residual-Control   Outer-Iter.   Inner-Iter.     Column Row Layer    Maximum-Head-Change  Column Row Layer    Maximum-Flux-Residual          L2-NORM 
          0                 1           2             4    7     1       0.7105031417E-02       4    7    1         0.3714649059E+00      0.1080155135E+01
          0                 2           2             4    7     1      -0.6907171505E-03       4    7    1        -0.3714654269E-01      0.1091763171E+00
          0                 3           1             5    8     1       0.5144422401E-04       5    8    1         0.2724639176E-02      0.7880856530E-02

    ------------------------------------------------
       NWT REQUIRED            3 OUTER ITERATIONS 
       AND A TOTAL OF          5 INNER ITERATIONS.
    ------------------------------------------------

 NO OUTPUT CONTROL FOR STRESS PERIOD   29   TIME STEP   27
 
 SOLVING FOR HEAD 
                                                   Max.-Head-Change                         Max.-Flux-Residual
  Residual-Control   Outer-Iter.   Inner-Iter.     Column Row Layer    Maximum-Head-Change  Column Row Layer    Maximum-Flux-Residual          L2-NORM 
          0                 1           2             4    7     1       0.7061648167E-02       4    7    1         0.3691908176E+00      0.1074775922E+01
          0                 2           2             4    7     1      -0.6864996509E-03       4    7    1        -0.3691913312E-01      0.1086342075E+00
          0                 3           1             5    8     1       0.5112658086E-04       5    8    1         0.2707697978E-02      0.7841766933E-02

    ------------------------------------------------
       NWT REQUIRED            3 OUTER ITERATIONS 
       AND A TOTAL OF          5 INNER ITERATIONS.
    ------------------------------------------------

 NO OUTPUT CONTROL FOR STRESS PERIOD   29   TIME STEP   28
 
 SOLVING FOR HEAD 
                                                   Max.-Head-Change                         Max.-Flux-Residual
  Residual-Control   Outer-Iter.   Inner-Iter.     Column Row Layer    Maximum-Head-Change  Column Row Layer    Maximum-Flux-Residual          L2-NORM 
          0                 1           2             4    7     1       0.7018598128E-02       4    7    1         0.3669339702E+00      0.1069514850E+01
          0                 2           2             4    7     1      -0.6823145266E-03       4    7    1        -0.3669344765E-01      0.1081025383E+00
          0                 3           1             5    8     1       0.5081364279E-04       5    8    1         0.2691011917E-02      0.7802494760E-02

    ------------------------------------------------
       NWT REQUIRED            3 OUTER ITERATIONS 
       AND A TOTAL OF          5 INNER ITERATIONS.
    ------------------------------------------------

 NO OUTPUT CONTROL FOR STRESS PERIOD   29   TIME STEP   29
 
 SOLVING FOR HEAD 
                                                   Max.-Head-Change                         Max.-Flux-Residual
  Residual-Control   Outer-Iter.   Inner-Iter.     Column Row Layer    Maximum-Head-Change  Column Row Layer    Maximum-Flux-Residual          L2-NORM 
          0                 1           2             4    7     1       0.6975960721E-02       4    7    1         0.3646944015E+00      0.1091791266E+01
          0                 2           2             4    7     1      -0.6781690201E-03       4    7    1        -0.3646949002E-01      0.1102115690E+00
          0                 3           1             5    8     1       0.5056587241E-04       5    8    1         0.2675939997E-02      0.7934159006E-02

    ------------------------------------------------
       NWT REQUIRED            3 OUTER ITERATIONS 
       AND A TOTAL OF          5 INNER ITERATIONS.
    ------------------------------------------------

 NO OUTPUT CONTROL FOR STRESS PERIOD   29   TIME STEP   30



 STREAM LISTING     PERIOD     29   STEP       30

 LAYER ROW COL. STREAM  RCH.  FLOW INTO     FLOW TO   FLOW OUT OF   OVRLND.     DIRECT     STREAM       STREAM     STREAM     STREAM   STREAMBED  STREAMBED
                SEG.NO.  NO.  STRM. RCH.    AQUIFER    STRM. RCH.    RUNOFF     PRECIP       ET          HEAD       DEPTH      WIDTH   CONDCTNC.   GRADIENT

   1    1    1     1     1    1.8581E+01  2.1154E-01   1.8369E+01  0.000E+00  0.000E+00  0.000E+00  1.09412E+03  1.075E+00  1.154E+01  5.191E-02  1.358E+00
   1    2    2     1     2    1.8369E+01  3.2630E-01   1.8043E+01  0.000E+00  0.000E+00  0.000E+00  1.08913E+03  1.070E+00  1.145E+01  8.016E-02  1.357E+00
   1    3    3     1     3    1.8043E+01  2.7702E-01   1.7766E+01  0.000E+00  0.000E+00  0.000E+00  1.08348E+03  1.065E+00  1.136E+01  6.814E-02  1.355E+00
   1    3    4     1     4    1.7766E+01  2.5406E-01   1.7512E+01  0.000E+00  0.000E+00  0.000E+00  1.07847E+03  1.061E+00  1.127E+01  6.256E-02  1.354E+00
   1    4    5     2     1    1.5512E+01  3.0432E-01   1.5207E+01  0.000E+00  0.000E+00  0.000E+00  1.07284E+03  9.015E-01  1.200E+01  7.800E-02  1.301E+00
   1    5    6     2     2    1.5207E+01  2.3352E-01   1.4974E+01  0.000E+00  0.000E+00  0.000E+00  1.06740E+03  8.920E-01  1.200E+01  6.000E-02  1.297E+00
   1    6    6     2     3    1.4974E+01  2.3302E-01   1.4741E+01  0.000E+00  0.000E+00  0.000E+00  1.06268E+03  8.837E-01  1.200E+01  6.000E-02  1.295E+00
   1    7    6     2     4    1.4741E+01  2.3252E-01   1.4508E+01  0.000E+00  0.000E+00  0.000E+00  1.05795E+03  8.754E-01  1.200E+01  6.000E-02  1.292E+00
   1    8    6     2     5    1.4508E+01  2.3202E-01   1.4276E+01  0.000E+00  0.000E+00  0.000E+00  1.05323E+03  8.670E-01  1.200E+01  6.000E-02  1.289E+00
   1    3    5     3     1    2.0000E+00  2.8252E-01   1.7175E+00  0.000E+00  0.000E+00  0.000E+00  1.07555E+03  1.909E+00  9.636E+00  7.227E-02  1.955E+00
   1    3    6     3     2    1.7175E+00  2.4905E-01   1.4684E+00  0.000E+00  0.000E+00  0.000E+00  1.07264E+03  1.727E+00  8.909E+00  6.682E-02  1.864E+00
   1    3    7     3     3    1.4684E+00  1.9718E-01   1.2712E+00  0.000E+00  0.000E+00  0.000E+00  1.06987E+03  1.555E+00  8.218E+00  5.547E-02  1.777E+00
   1    4    8     3     4    1.2712E+00  2.2567E-01   1.0456E+00  0.000E+00  0.000E+00  0.000E+00  1.06682E+03  1.364E+00  7.455E+00  6.709E-02  1.682E+00
   1    5    8     3     5    1.0456E+00  1.5790E-01   8.8768E-01  0.000E+00  0.000E+00  0.000E+00  1.06362E+03  1.164E+00  6.655E+00  4.991E-02  1.582E+00
   1    6    8     3     6    8.8768E-01  5.5980E-02   8.3170E-01  0.000E+00  0.000E+00  0.000E+00  1.06158E+03  1.036E+00  6.145E+00  1.844E-02  1.518E+00
   1    5   10     4     1    1.0000E+01  9.0919E-02   9.9091E+00  0.000E+00  0.000E+00  0.000E+00  1.07836E+03  6.368E-01  1.000E+01  2.500E-02  1.212E+00
   1    5    9     4     2    9.9091E+00  1.8158E-01   9.7275E+00  0.000E+00  0.000E+00  0.000E+00  1.07154E+03  6.315E-01  1.000E+01  5.000E-02  1.211E+00
   1    6    8     4     3    9.7275E+00  1.2689E-01   9.6006E+00  0.000E+00  0.000E+00  0.000E+00  1.06381E+03  6.256E-01  1.000E+01  3.500E-02  1.209E+00
   1    6    8     5     1    1.0432E+01  2.2686E-01   1.0205E+01  0.000E+00  0.000E+00  0.000E+00  1.05868E+03  6.790E-01  1.542E+01  6.166E-02  1.226E+00
   1    7    7     5     2    1.0205E+01  2.7894E-01   9.9265E+00  0.000E+00  0.000E+00  0.000E+00  1.05417E+03  6.732E-01  1.519E+01  7.594E-02  1.224E+00
   1    8    7     5     3    9.9265E+00  1.9221E-01   9.7343E+00  0.000E+00  0.000E+00  0.000E+00  1.04992E+03  6.676E-01  1.497E+01  5.241E-02  1.223E+00
   1    8    6     5     4    9.7343E+00  1.3577E-01   9.5985E+00  0.000E+00  0.000E+00  0.000E+00  1.04691E+03  6.637E-01  1.482E+01  3.706E-02  1.221E+00
   1    9    6     6     1    2.3875E+01  2.5104E-01   2.3624E+01  0.000E+00  0.000E+00  0.000E+00  1.04391E+03  1.184E+00  1.200E+01  6.000E-02  1.395E+00
   1   10    7     6     2    2.3624E+01  2.5059E-01   2.3373E+01  0.000E+00  0.000E+00  0.000E+00  1.03936E+03  1.177E+00  1.200E+01  6.000E-02  1.392E+00
   1   11    7     6     3    2.3373E+01  2.5014E-01   2.3123E+01  0.000E+00  0.000E+00  0.000E+00  1.03481E+03  1.169E+00  1.200E+01  6.000E-02  1.390E+00
   1   12    7     6     4    2.3123E+01  2.4969E-01   2.2873E+01  0.000E+00  0.000E+00  0.000E+00  1.03025E+03  1.161E+00  1.200E+01  6.000E-02  1.387E+00
   1   13    7     6     5    2.2873E+01  1.2046E-02   2.2861E+01  0.000E+00  0.000E+00  0.000E+00  1.02707E+03  1.157E+00  1.200E+01  2.400E-02  1.673E-01
   1   14    9     7     1    1.5000E+02  1.3870E+00   1.4861E+02  0.000E+00  0.000E+00  0.000E+00  1.03987E+03  2.288E+00  5.529E+01  5.593E-01  8.266E-01
   1   13    8     7     2    1.4861E+02  1.9985E+00   1.4661E+02  0.000E+00  0.000E+00  0.000E+00  1.03478E+03  2.279E+00  5.525E+01  6.147E-01  1.084E+00
   1   13    7     7     3    1.4661E+02  1.7439E+00   1.4487E+02  0.000E+00  0.000E+00  0.000E+00  1.02969E+03  2.269E+00  5.521E+01  5.584E-01  1.041E+00
   1   13    6     8     1    1.6773E+02  1.1715E+00   1.6656E+02  0.000E+00  0.000E+00  0.000E+00  1.02481E+03  2.934E+00  4.254E+01  4.335E-01  9.009E-01
   1   13    5     8     2    1.6656E+02  4.0189E-01   1.6616E+02  0.000E+00  0.000E+00  0.000E+00  1.01855E+03  2.928E+00  4.246E+01  4.327E-01  3.096E-01
   1   13    4     8     3    1.6616E+02 -1.5942E+00   1.6775E+02  0.000E+00  0.000E+00  0.000E+00  1.01231E+03  2.932E+00  4.252E+01  4.333E+00 -1.227E-01
   1   13    3     8     4    1.6775E+02 -3.1877E+00   1.7094E+02  0.000E+00  0.000E+00  0.000E+00  1.00607E+03  2.948E+00  4.275E+01  4.356E+00 -2.439E-01
   1   13    2     8     5    1.7094E+02 -2.3793E+00   1.7332E+02  0.000E+00  0.000E+00  0.000E+00  9.99841E+02  2.966E+00  4.301E+01  4.383E+00 -1.810E-01
   1   13    1     8     6    1.7332E+02 -1.9169E+00   1.7524E+02  0.000E+00  0.000E+00  0.000E+00  9.94855E+02  2.980E+00  4.321E+01  2.642E+00 -2.419E-01
   1    8    6     9     1    0.0000E+00  0.0000E+00   0.0000E+00  0.000E+00  0.000E+00  0.000E+00  1.07875E+03  0.000E+00  4.000E+00  0.000E+00  1.000E+00
   1    8    5     9     2    0.0000E+00  0.0000E+00   0.0000E+00  0.000E+00  0.000E+00  0.000E+00  1.07825E+03  0.000E+00  4.000E+00  0.000E+00  1.000E+00





UNSATURATED ZONE PACKAGE VOLUMETRIC BUDGET FOR  TIME STEP    30 STRESS PERIOD   29
  ------------------------------------------------------------------------------



     CUMULATIVE VOLUMES      L**3       RATES FOR THIS TIME STEP      L**3/T
     ------------------                 ------------------------

           IN:                                      IN:
           ---                                      ---
        INFILTRATION =  1123951863.7445          INFILTRATION =           0.8475

          OUT:                                     OUT:
          ----                                     ----
              UZF ET =   871661440.9993                UZF ET =           0.8475
        UZF RECHARGE =      506730.1770          UZF RECHARGE =           0.0710

            IN - OUT =   251783692.5682              IN - OUT =      -7.1009E-02

          STORAGE:                                 STORAGE:
          --------                                 --------
      STORAGE CHANGE =   251787931.1515        STORAGE CHANGE =      -7.1009E-02

 PERCENT DISCREPANCY IS DIFFERENCE BETWEEN IN-OUT MINUS CHANGE IN STORAGE
 DIVIDED BY THE AVERAGE OF IN AND OUT TIMES 100

 PERCENT DISCREPANCY =          -0.00     PERCENT DISCREPANCY =           0.00






1
  VOLUMETRIC BUDGET FOR AGRICULTURAL FIELDS AT  END OF TIME STEP   30, STRESS PERIOD  29
  ------------------------------------------------------------------------------

     CUMULATIVE VOLUMES      L**3       RATES FOR THIS TIME STEP      L**3/T
     ------------------                 ------------------------

           IN:                                      IN:
           ---                                      ---
               AG WELLS  =   697628416.0000                 AG WELLS  =           0.0000
      DIVERSION SEGMENTS =   363935712.0000        DIVERSION SEGMENTS =           0.0000
       IRRIGATION PONDS  =           0.0000         IRRIGATION PONDS  =           0.0000
           GW IRRIGATION =           0.0000             GW IRRIGATION =           0.0000
           SW IRRIGATION =           0.0000             SW IRRIGATION =           0.0000
        SYSTEM LOSSES GW =           0.0000          SYSTEM LOSSES GW =           0.0000
        SYSTEM LOSSES SW =           0.0000          SYSTEM LOSSES SW =           0.0000

                TOTAL IN =  1061564160.0000                  TOTAL IN =           0.0000

          OUT:                                     OUT:
          ----                                     ----
               AG WELLS  =           0.0000                 AG WELLS  =           0.0000
      DIVERSION SEGMENTS =           0.0000        DIVERSION SEGMENTS =           0.0000
       IRRIGATION PONDS  =           0.0000         IRRIGATION PONDS  =           0.0000
           GW IRRIGATION =   697628416.0000             GW IRRIGATION =           0.0000
           SW IRRIGATION =   363942752.0000             SW IRRIGATION =           0.0000
        SYSTEM LOSSES GW =           0.0000          SYSTEM LOSSES GW =           0.0000
        SYSTEM LOSSES SW =           0.0000          SYSTEM LOSSES SW =           0.0000

               TOTAL OUT =  1061571200.0000                 TOTAL OUT =           0.0000

                IN - OUT =       -7040.0000                  IN - OUT =           0.0000

     PERCENT DISCREPANCY =          -0.00         PERCENT DISCREPANCY =           0.00



1
  VOLUMETRIC BUDGET FOR ENTIRE MODEL AT END OF TIME STEP   30, STRESS PERIOD  29
  ------------------------------------------------------------------------------

     CUMULATIVE VOLUMES      L**3       RATES FOR THIS TIME STEP      L**3/T
     ------------------                 ------------------------

           IN:                                      IN:
           ---                                      ---
             STORAGE     =  1113631232.0000               STORAGE     =           2.1345
       CONSTANT HEAD     =           0.0000         CONSTANT HEAD     =           0.0000
     HEAD DEP BOUNDS     =    21254098.0000       HEAD DEP BOUNDS     =           0.2892
      STREAM LEAKAGE     =   872802752.0000        STREAM LEAKAGE     =          12.4221
        UZF RECHARGE     =      506730.1875          UZF RECHARGE     =       7.1009E-02
               GW ET     =           0.0000                 GW ET     =           0.0000
     SURFACE LEAKAGE     =           0.0000       SURFACE LEAKAGE     =           0.0000
           AG WELLS      =           0.0000             AG WELLS      =           0.0000

                TOTAL IN =  2008194944.0000                  TOTAL IN =          14.9168

          OUT:                                     OUT:
          ----                                     ----
             STORAGE     =   553214656.0000               STORAGE     =           5.5513
       CONSTANT HEAD     =           0.0000         CONSTANT HEAD     =           0.0000
     HEAD DEP BOUNDS     =    21222916.0000       HEAD DEP BOUNDS     =           0.2881
      STREAM LEAKAGE     =   736139008.0000        STREAM LEAKAGE     =           9.0781
        UZF RECHARGE     =           0.0000          UZF RECHARGE     =           0.0000
               GW ET     =           0.0000                 GW ET     =           0.0000
     SURFACE LEAKAGE     =           0.0000       SURFACE LEAKAGE     =           0.0000
           AG WELLS      =   697628416.0000             AG WELLS      =           0.0000

               TOTAL OUT =  2008205056.0000                 TOTAL OUT =          14.9174

                IN - OUT =      -10112.0000                  IN - OUT =      -5.7983E-04

     PERCENT DISCREPANCY =          -0.00         PERCENT DISCREPANCY =          -0.00






         TIME SUMMARY AT END OF TIME STEP   30 IN STRESS PERIOD   29
                    SECONDS     MINUTES      HOURS       DAYS        YEARS
                    -----------------------------------------------------------
   TIME STEP LENGTH  87667.      1461.1      24.352      1.0147     2.77799E-03
 STRESS PERIOD TIME 2.63000E+06  43833.      730.56      30.440     8.33397E-02
         TOTAL TIME 7.37266E+07 1.22878E+06  20480.      853.32      2.3363    
1
1
                            STRESS PERIOD NO.   30, LENGTH =   2630000.    
                            -----------------------------------------------

                              NUMBER OF TIME STEPS =    30

                               MULTIPLIER FOR DELT =     1.000

                            INITIAL TIME STEP SIZE =   87666.66    

 REUSING NON-PARAMETER GHB CELLS FROM LAST STRESS PERIOD

      2 GHB CELLS

 REUSING STREAM SEGMENT DATA FROM LAST STRESS PERIOD



            AREAL INFILTRATION RATE
 READING ON UNIT   19 WITH FORMAT: (FREE)              

            1           2           3           4           5           6           7           8           9          10
 ........................................................................................................................
   1   1.0000E-10  2.0000E-10   0.000       0.000       0.000       0.000       0.000       0.000       0.000       0.000    
   2   2.0000E-10  1.0000E-10  2.0000E-10   0.000       0.000      8.0000E-10  8.0000E-10  5.0000E-10   0.000       0.000    
   3    0.000      5.0000E-10  1.0000E-10  1.0000E-10  8.0000E-10  8.0000E-10  5.0000E-10  5.0000E-10   0.000       0.000    
   4   8.0000E-10  5.0000E-10  1.0000E-10  1.0000E-10  1.0000E-10  1.0000E-10  1.0000E-10  1.0000E-10  2.0000E-10   0.000    
   5   8.0000E-10  5.0000E-10  1.0000E-10  1.0000E-10  1.0000E-10  1.0000E-10  1.0000E-10  1.0000E-10  1.0000E-10  1.0000E-10
   6   8.0000E-10  5.0000E-10  5.0000E-10  2.0000E-10  2.0000E-10  1.0000E-10  1.0000E-10  1.0000E-10  1.0000E-10  5.0000E-10
   7   8.0000E-10  5.0000E-10  5.0000E-10  2.0000E-10  2.0000E-10  1.0000E-10  1.0000E-10  2.0000E-10  2.0000E-10   0.000    
   8    0.000      5.0000E-10  5.0000E-10  2.0000E-10  2.0000E-10  1.0000E-10  1.0000E-10  2.0000E-10  5.0000E-10   0.000    
   9    0.000      5.0000E-10  5.0000E-10  2.0000E-10  2.0000E-10  1.0000E-10  1.0000E-10  2.0000E-10  5.0000E-10   0.000    
  10    0.000      5.0000E-10  5.0000E-10  2.0000E-10  2.0000E-10  1.0000E-10  1.0000E-10  2.0000E-10  5.0000E-10  8.0000E-10
  11    0.000      1.0000E-10  1.0000E-10  1.0000E-10  1.0000E-10  1.0000E-10  1.0000E-10  2.0000E-10  5.0000E-10   0.000    
  12   1.0000E-10  1.0000E-10  1.0000E-10  1.0000E-10  1.0000E-10  1.0000E-10  1.0000E-10  1.0000E-10  2.0000E-10   0.000    
  13   1.0000E-10  1.0000E-10  2.0000E-10  2.0000E-10  2.0000E-10  2.0000E-10  2.0000E-10  1.0000E-10  1.0000E-10   0.000    
  14    0.000      2.0000E-10  5.0000E-10  5.0000E-10  5.0000E-10  5.0000E-10  5.0000E-10  2.0000E-10  1.0000E-10   0.000    
  15    0.000       0.000      8.0000E-10  8.0000E-10  8.0000E-10  8.0000E-10   0.000       0.000       0.000       0.000    

                  ET RATE =  5.000000E-08

 USING ET EXTINCTION DEPTH FROM PREVIOUS STRESS PERIOD. CURRENT PERIOD IS:      30

 USING EXTINCTION WATER CONTENT FROM PREVIOUS STRESS PERIOD. CURRENT PERIOD IS:      30

 USING AIR ENTRY PRESSURE FROM PREVIOUS STRESS PERIOD. CURRENT PERIOD IS:      30

 USING ROOT PRESSURE HEAD FROM PREVIOUS STRESS PERIOD. CURRENT PERIOD IS:      30

 USING ROOT ACTIVITY FROM PREVIOUS STRESS PERIOD. CURRENT PERIOD IS:      30

 PROCESSING AG STRESS PERIOD DATA

 READING AG STRESS PERIOD DATA

 READING IRRIGATION SEGMENT

 READING IRRIGATION WELL

 READING SUPPLEMENTAL WELL

 NO IRRPOND OR REUSING IRRPOND DATA FROM LAST STRESS PERIOD

 END PROCESSING AG STRESS PERIOD DATA OPTIONS
 
 SOLVING FOR HEAD 
                                                   Max.-Head-Change                         Max.-Flux-Residual
  Residual-Control   Outer-Iter.   Inner-Iter.     Column Row Layer    Maximum-Head-Change  Column Row Layer    Maximum-Flux-Residual          L2-NORM 
          0                 1           2             4    7     1       0.6934009025E-02       4   13    1         0.3899674531E+00      0.1285910861E+01
          0                 2           2             4    7     1      -0.2385738613E-01       4    7    1        -0.1281248412E+01      0.3126539699E+01
          0                 3           2             4    7     1       0.2417690130E-01       4    7    1         0.1334686853E+01      0.3241062845E+01
          0                 4           2             4    7     1      -0.9615233559E-03       4    7    1        -0.5458968070E-01      0.1230692794E+00
          0                 5           1             5    8     1       0.3772693537E-04       5    8    1         0.2178060970E-02      0.2674908101E-02

    ------------------------------------------------
       NWT REQUIRED            5 OUTER ITERATIONS 
       AND A TOTAL OF          9 INNER ITERATIONS.
    ------------------------------------------------

 NO OUTPUT CONTROL FOR STRESS PERIOD   30   TIME STEP    1
 
 SOLVING FOR HEAD 
                                                   Max.-Head-Change                         Max.-Flux-Residual
  Residual-Control   Outer-Iter.   Inner-Iter.     Column Row Layer    Maximum-Head-Change  Column Row Layer    Maximum-Flux-Residual          L2-NORM 
          0                 1           2             4   13     1       0.9647305867E-02       4   13    1         0.5546604989E+00      0.1443000854E+01
          0                 2           2             4   13     1      -0.9286456096E-03       4   13    1        -0.5489680581E-01      0.1435004654E+00
          0                 3           1             4   13     1       0.6232811332E-04       4   13    1         0.3788326324E-02      0.1006842244E-01

    ------------------------------------------------
       NWT REQUIRED            3 OUTER ITERATIONS 
       AND A TOTAL OF          5 INNER ITERATIONS.
    ------------------------------------------------

 NO OUTPUT CONTROL FOR STRESS PERIOD   30   TIME STEP    2
 
 SOLVING FOR HEAD 
                                                   Max.-Head-Change                         Max.-Flux-Residual
  Residual-Control   Outer-Iter.   Inner-Iter.     Column Row Layer    Maximum-Head-Change  Column Row Layer    Maximum-Flux-Residual          L2-NORM 
          0                 1           2             4   13     1       0.8726298145E-02       4   13    1         0.5014439885E+00      0.1393836233E+01
          0                 2           2             4    7     1      -0.2384314496E-01       4    7    1        -0.1280480329E+01      0.3127821241E+01
          0                 3           2             4    7     1       0.2416985351E-01       4    7    1         0.1334297911E+01      0.3240278270E+01
          0                 4           2             4    7     1      -0.9612450567E-03       4    7    1        -0.5457377262E-01      0.1229989207E+00
          0                 5           1             5    8     1       0.3697343887E-04       5    8    1         0.2134132441E-02      0.2639052496E-02

    ------------------------------------------------
       NWT REQUIRED            5 OUTER ITERATIONS 
       AND A TOTAL OF          9 INNER ITERATIONS.
    ------------------------------------------------

 NO OUTPUT CONTROL FOR STRESS PERIOD   30   TIME STEP    3
 
 SOLVING FOR HEAD 
                                                   Max.-Head-Change                         Max.-Flux-Residual
  Residual-Control   Outer-Iter.   Inner-Iter.     Column Row Layer    Maximum-Head-Change  Column Row Layer    Maximum-Flux-Residual          L2-NORM 
          0                 1           2             4   13     1       0.8198908778E-02       4   13    1         0.4709788035E+00      0.1364697618E+01
          0                 2           2             4   13     1      -0.7891854577E-03       4   13    1        -0.4661189330E-01      0.1360337655E+00
          0                 3           2             4    7     1      -0.2309107344E-01       5    6    1        -0.1240638159E+01      0.3052913761E+01
          0                 4           2             4    7     1       0.2408032253E-01       5    6    1         0.1329384968E+01      0.3228464918E+01
          0                 5           2             4    7     1      -0.9579083516E-03       4    8    1        -0.5438570393E-01      0.1226100949E+00
          0                 6           1             5    8     1       0.3709320566E-04       5    8    1         0.2141256936E-02      0.2642327553E-02

    ------------------------------------------------
       NWT REQUIRED            6 OUTER ITERATIONS 
       AND A TOTAL OF         11 INNER ITERATIONS.
    ------------------------------------------------

 NO OUTPUT CONTROL FOR STRESS PERIOD   30   TIME STEP    4
 
 SOLVING FOR HEAD 
                                                   Max.-Head-Change                         Max.-Flux-Residual
  Residual-Control   Outer-Iter.   Inner-Iter.     Column Row Layer    Maximum-Head-Change  Column Row Layer    Maximum-Flux-Residual          L2-NORM 
          0                 1           2             4   13     1       0.7723195772E-02       4   13    1         0.4435069869E+00      0.1338437949E+01
          0                 2           2             4   13     1      -0.7433876573E-03       4   13    1        -0.4389243122E-01      0.1335252783E+00
          0                 3           2             4    7     1      -0.2309205223E-01       5    6    1        -0.1240682161E+01      0.3053016984E+01
          0                 4           2             4    7     1       0.2408107955E-01       5    6    1         0.1329426315E+01      0.3228640986E+01
          0                 5           2             4    7     1      -0.9579424417E-03       4    8    1        -0.5438757489E-01      0.1225934892E+00
          0                 6           1             5    8     1       0.3665837099E-04       5    8    1         0.2115900146E-02      0.2621926939E-02

    ------------------------------------------------
       NWT REQUIRED            6 OUTER ITERATIONS 
       AND A TOTAL OF         11 INNER ITERATIONS.
    ------------------------------------------------

 NO OUTPUT CONTROL FOR STRESS PERIOD   30   TIME STEP    5
 
 SOLVING FOR HEAD 
                                                   Max.-Head-Change                         Max.-Flux-Residual
  Residual-Control   Outer-Iter.   Inner-Iter.     Column Row Layer    Maximum-Head-Change  Column Row Layer    Maximum-Flux-Residual          L2-NORM 
          0                 1           2             4   13     1       0.7294448147E-02       4   13    1         0.4187549830E+00      0.1314733300E+01
          0                 2           2             4   13     1      -0.7021015292E-03       4   13    1        -0.4144149108E-01      0.1312627022E+00
          0                 3           2             4    7     1      -0.2309300676E-01       5    6    1        -0.1240725098E+01      0.3053117826E+01
          0                 4           2             4    7     1       0.2408181555E-01       5    6    1         0.1329466514E+01      0.3228815984E+01
          0                 5           2             4    7     1      -0.9579729226E-03       4    8    1        -0.5438923916E-01      0.1225761763E+00
          0                 6           1             5    8     1       0.3621386898E-04       5    8    1         0.2089979707E-02      0.2601144943E-02

    ------------------------------------------------
       NWT REQUIRED            6 OUTER ITERATIONS 
       AND A TOTAL OF         11 INNER ITERATIONS.
    ------------------------------------------------

 NO OUTPUT CONTROL FOR STRESS PERIOD   30   TIME STEP    6
 
 SOLVING FOR HEAD 
                                                   Max.-Head-Change                         Max.-Flux-Residual
  Residual-Control   Outer-Iter.   Inner-Iter.     Column Row Layer    Maximum-Head-Change  Column Row Layer    Maximum-Flux-Residual          L2-NORM 
          0                 1           2             4   13     1       0.6907837690E-02       4   13    1         0.3964425731E+00      0.1293277139E+01
          0                 2           2             4   13     1      -0.6648835248E-03       4   13    1        -0.3923304527E-01      0.1292068432E+00
          0                 3           2             4    7     1      -0.2309394586E-01       5    6    1        -0.1240767435E+01      0.3053219559E+01
          0                 4           2             4    7     1       0.2408253761E-01       5    6    1         0.1329505956E+01      0.3228990688E+01
          0                 5           2             4    7     1      -0.9580028737E-03       4    8    1        -0.5439087180E-01      0.1225586033E+00
          0                 6           1             5    8     1       0.3575891540E-04       5    8    1         0.2063452301E-02      0.2579866399E-02

    ------------------------------------------------
       NWT REQUIRED            6 OUTER ITERATIONS 
       AND A TOTAL OF         11 INNER ITERATIONS.
    ------------------------------------------------

 NO OUTPUT CONTROL FOR STRESS PERIOD   30   TIME STEP    7
 
 SOLVING FOR HEAD 
                                                   Max.-Head-Change                         Max.-Flux-Residual
  Residual-Control   Outer-Iter.   Inner-Iter.     Column Row Layer    Maximum-Head-Change  Column Row Layer    Maximum-Flux-Residual          L2-NORM 
          0                 1           2             4    7     1       0.6655787934E-02       4   13    1         0.3763311324E+00      0.1273802081E+01
          0                 2           2             4    7     1      -0.6470361839E-03       4   13    1        -0.3724262568E-01      0.1273422927E+00
          0                 3           2             4    7     1      -0.2309486277E-01       5    6    1        -0.1240808910E+01      0.3053319433E+01
          0                 4           2             4    7     1       0.2408324096E-01       5    6    1         0.1329544384E+01      0.3229164977E+01
          0                 5           2             4    7     1      -0.9580321127E-03       4    8    1        -0.5439246203E-01      0.1225406364E+00
          0                 6           1             5    8     1       0.3529204379E-04       5    8    1         0.2036229937E-02      0.2558130367E-02

    ------------------------------------------------
       NWT REQUIRED            6 OUTER ITERATIONS 
       AND A TOTAL OF         11 INNER ITERATIONS.
    ------------------------------------------------

 NO OUTPUT CONTROL FOR STRESS PERIOD   30   TIME STEP    8
 
 SOLVING FOR HEAD 
                                                   Max.-Head-Change                         Max.-Flux-Residual
  Residual-Control   Outer-Iter.   Inner-Iter.     Column Row Layer    Maximum-Head-Change  Column Row Layer    Maximum-Flux-Residual          L2-NORM 
          0                 1           2             4    7     1       0.6618031209E-02       4   13    1         0.3581936484E+00      0.1256077754E+01
          0                 2           2             4    7     1      -0.6433649498E-03       4   13    1        -0.3544544289E-01      0.1256435330E+00
          0                 3           2             4    7     1      -0.2309576161E-01       5    6    1        -0.1240849625E+01      0.3053417909E+01
          0                 4           2             4    7     1       0.2408392801E-01       5    6    1         0.1329581924E+01      0.3229337499E+01
          0                 5           2             4    7     1      -0.9580579083E-03       4    8    1        -0.5439385633E-01      0.1225223734E+00
          0                 6           1             5    8     1       0.3482033980E-04       5    8    1         0.2008730830E-02      0.2536062438E-02

    ------------------------------------------------
       NWT REQUIRED            6 OUTER ITERATIONS 
       AND A TOTAL OF         11 INNER ITERATIONS.
    ------------------------------------------------

 NO OUTPUT CONTROL FOR STRESS PERIOD   30   TIME STEP    9
 
 SOLVING FOR HEAD 
                                                   Max.-Head-Change                         Max.-Flux-Residual
  Residual-Control   Outer-Iter.   Inner-Iter.     Column Row Layer    Maximum-Head-Change  Column Row Layer    Maximum-Flux-Residual          L2-NORM 
          0                 1           2             4    7     1       0.6580680081E-02       4    7    1         0.3438815669E+00      0.1239880626E+01
          0                 2           2             4    7     1      -0.6397332149E-03       4    7    1        -0.3438823604E-01      0.1240898124E+00
          0                 3           2             4    7     1      -0.2309664440E-01       5    6    1        -0.1240889680E+01      0.3053515621E+01
          0                 4           2             4    7     1       0.2408460109E-01       5    6    1         0.1329618703E+01      0.3229510643E+01
          0                 5           2             4    7     1      -0.9580887893E-03       4    8    1        -0.5439553692E-01      0.1225043502E+00
          0                 6           1             5    8     1       0.3433911534E-04       5    8    1         0.1980666511E-02      0.2514099589E-02

    ------------------------------------------------
       NWT REQUIRED            6 OUTER ITERATIONS 
       AND A TOTAL OF         11 INNER ITERATIONS.
    ------------------------------------------------

 NO OUTPUT CONTROL FOR STRESS PERIOD   30   TIME STEP   10
 
 SOLVING FOR HEAD 
                                                   Max.-Head-Change                         Max.-Flux-Residual
  Residual-Control   Outer-Iter.   Inner-Iter.     Column Row Layer    Maximum-Head-Change  Column Row Layer    Maximum-Flux-Residual          L2-NORM 
          0                 1           2             4    7     1       0.6543861692E-02       4    7    1         0.3419448601E+00      0.1225050091E+01
          0                 2           2             4    7     1      -0.6361533029E-03       4    7    1        -0.3419456471E-01      0.1226661062E+00
          0                 3           2             4    7     1      -0.2309751029E-01       5    6    1        -0.1240929073E+01      0.3053612107E+01
          0                 4           2             4    7     1       0.2408526009E-01       5    6    1         0.1329654721E+01      0.3229681970E+01
          0                 5           2             4    7     1      -0.9581163109E-03       4    8    1        -0.5439702665E-01      0.1224861353E+00
          0                 6           1             5    8     1       0.3385511227E-04       5    8    1         0.1952445136E-02      0.2491907892E-02

    ------------------------------------------------
       NWT REQUIRED            6 OUTER ITERATIONS 
       AND A TOTAL OF         11 INNER ITERATIONS.
    ------------------------------------------------

 NO OUTPUT CONTROL FOR STRESS PERIOD   30   TIME STEP   11
 
 SOLVING FOR HEAD 
                                                   Max.-Head-Change                         Max.-Flux-Residual
  Residual-Control   Outer-Iter.   Inner-Iter.     Column Row Layer    Maximum-Head-Change  Column Row Layer    Maximum-Flux-Residual          L2-NORM 
          0                 1           2             4    7     1       0.6507558986E-02       4    7    1         0.3400357752E+00      0.1211419781E+01
          0                 2           2             4    7     1      -0.6326235791E-03       4    7    1        -0.3400365559E-01      0.1213547094E+00
          0                 3           2             4    7     1      -0.2309835716E-01       5    6    1        -0.1240967738E+01      0.3053707407E+01
          0                 4           2             4    7     1       0.2408590276E-01       5    6    1         0.1329689853E+01      0.3229852569E+01
          0                 5           2             4    7     1      -0.9581432044E-03       4    8    1        -0.5439847949E-01      0.1224677899E+00
          0                 6           1             5    8     1       0.3336296513E-04       5    8    1         0.1923748892E-02      0.2469470420E-02

    ------------------------------------------------
       NWT REQUIRED            6 OUTER ITERATIONS 
       AND A TOTAL OF         11 INNER ITERATIONS.
    ------------------------------------------------

 NO OUTPUT CONTROL FOR STRESS PERIOD   30   TIME STEP   12
 
 SOLVING FOR HEAD 
                                                   Max.-Head-Change                         Max.-Flux-Residual
  Residual-Control   Outer-Iter.   Inner-Iter.     Column Row Layer    Maximum-Head-Change  Column Row Layer    Maximum-Flux-Residual          L2-NORM 
          0                 1           2             4    7     1       0.6471621750E-02       4    7    1         0.3381460980E+00      0.1198849494E+01
          0                 2           2             4    7     1      -0.6291294166E-03       4    7    1        -0.3381468728E-01      0.1201438276E+00
          0                 3           2             4    7     1      -0.2309919048E-01       5    6    1        -0.1241005792E+01      0.3053801677E+01
          0                 4           2             4    7     1       0.2408653374E-01       5    6    1         0.1329724346E+01      0.3230022139E+01
          0                 5           2             4    7     1      -0.9581696415E-03       4    8    1        -0.5439990590E-01      0.1224495018E+00
          0                 6           1             5    8     1       0.3286766839E-04       5    8    1         0.1894868976E-02      0.2447019596E-02

    ------------------------------------------------
       NWT REQUIRED            6 OUTER ITERATIONS 
       AND A TOTAL OF         11 INNER ITERATIONS.
    ------------------------------------------------

 NO OUTPUT CONTROL FOR STRESS PERIOD   30   TIME STEP   13
 
 SOLVING FOR HEAD 
                                                   Max.-Head-Change                         Max.-Flux-Residual
  Residual-Control   Outer-Iter.   Inner-Iter.     Column Row Layer    Maximum-Head-Change  Column Row Layer    Maximum-Flux-Residual          L2-NORM 
          0                 1           2             4    7     1       0.6436041559E-02       4    7    1         0.3362753694E+00      0.1187224100E+01
          0                 2           2             4    7     1      -0.6256697160E-03       4    7    1        -0.3362759895E-01      0.1190224312E+00
          0                 3           2             4    7     1      -0.2310001059E-01       5    6    1        -0.1241043422E+01      0.3053894974E+01
          0                 4           2             4    7     1       0.2408715306E-01       5    6    1         0.1329758213E+01      0.3230190581E+01
          0                 5           2             4    7     1      -0.9581928207E-03       4    8    1        -0.5440114686E-01      0.1224309921E+00
          0                 6           1             5    8     1       0.3236753964E-04       5    8    1         0.1865712283E-02      0.2424262401E-02

    ------------------------------------------------
       NWT REQUIRED            6 OUTER ITERATIONS 
       AND A TOTAL OF         11 INNER ITERATIONS.
    ------------------------------------------------

 NO OUTPUT CONTROL FOR STRESS PERIOD   30   TIME STEP   14
 
 SOLVING FOR HEAD 
                                                   Max.-Head-Change                         Max.-Flux-Residual
  Residual-Control   Outer-Iter.   Inner-Iter.     Column Row Layer    Maximum-Head-Change  Column Row Layer    Maximum-Flux-Residual          L2-NORM 
          0                 1           2             4    7     1       0.6400946895E-02       4    7    1         0.3344304812E+00      0.1176437164E+01
          0                 2           2             4    7     1      -0.6222578172E-03       4    7    1        -0.3344312441E-01      0.1179811040E+00
          0                 3           2             4    7     1      -0.2310080908E-01       5    6    1        -0.1241080040E+01      0.3053986427E+01
          0                 4           2             4    7     1       0.2408775369E-01       5    6    1         0.1329791056E+01      0.3230357581E+01
          0                 5           2             4    7     1      -0.9582208748E-03       4    8    1        -0.5440266340E-01      0.1224131000E+00
          0                 6           1             5    8     1       0.3186622407E-04       5    8    1         0.1836476331E-02      0.2402042982E-02

    ------------------------------------------------
       NWT REQUIRED            6 OUTER ITERATIONS 
       AND A TOTAL OF         11 INNER ITERATIONS.
    ------------------------------------------------

 NO OUTPUT CONTROL FOR STRESS PERIOD   30   TIME STEP   15
 
 SOLVING FOR HEAD 
                                                   Max.-Head-Change                         Max.-Flux-Residual
  Residual-Control   Outer-Iter.   Inner-Iter.     Column Row Layer    Maximum-Head-Change  Column Row Layer    Maximum-Flux-Residual          L2-NORM 
          0                 1           2             4    7     1       0.6366186607E-02       4    7    1         0.3326034373E+00      0.1166396814E+01
          0                 2           2             4    7     1      -0.6188781712E-03       4    7    1        -0.3326041946E-01      0.1170093723E+00
          0                 3           2             4    7     1      -0.2310159674E-01       5    6    1        -0.1241116286E+01      0.3054077160E+01
          0                 4           2             4    7     1       0.2408834497E-01       5    6    1         0.1329823396E+01      0.3230523541E+01
          0                 5           2             4    7     1      -0.9582457590E-03       4    8    1        -0.5440399992E-01      0.1223950692E+00
          0                 6           1             5    8     1       0.3136137395E-04       5    8    1         0.1807039251E-02      0.2379590755E-02

    ------------------------------------------------
       NWT REQUIRED            6 OUTER ITERATIONS 
       AND A TOTAL OF         11 INNER ITERATIONS.
    ------------------------------------------------

 NO OUTPUT CONTROL FOR STRESS PERIOD   30   TIME STEP   16
 
 SOLVING FOR HEAD 
                                                   Max.-Head-Change                         Max.-Flux-Residual
  Residual-Control   Outer-Iter.   Inner-Iter.     Column Row Layer    Maximum-Head-Change  Column Row Layer    Maximum-Flux-Residual          L2-NORM 
          0                 1           2             4    7     1       0.6331888113E-02       4    7    1         0.3308010589E+00      0.1157023848E+01
          0                 2           2             4    7     1      -0.6155434481E-03       4    7    1        -0.3308018106E-01      0.1160992392E+00
          0                 3           2             4    7     1      -0.2310237019E-01       5    6    1        -0.1241151903E+01      0.3054167038E+01
          0                 4           2             4    7     1       0.2408892453E-01       5    6    1         0.1329855095E+01      0.3230688126E+01
          0                 5           2             4    7     1      -0.9582673774E-03       4    8    1        -0.5440515107E-01      0.1223769063E+00
          0                 6           1             5    8     1       0.3085348370E-04       5    8    1         0.1777429937E-02      0.2356924605E-02

    ------------------------------------------------
       NWT REQUIRED            6 OUTER ITERATIONS 
       AND A TOTAL OF         11 INNER ITERATIONS.
    ------------------------------------------------

 NO OUTPUT CONTROL FOR STRESS PERIOD   30   TIME STEP   17
 
 SOLVING FOR HEAD 
                                                   Max.-Head-Change                         Max.-Flux-Residual
  Residual-Control   Outer-Iter.   Inner-Iter.     Column Row Layer    Maximum-Head-Change  Column Row Layer    Maximum-Flux-Residual          L2-NORM 
          0                 1           2             4    7     1       0.6298037679E-02       4    7    1         0.3290226241E+00      0.1148248733E+01
          0                 2           2             4    7     1      -0.6122523104E-03       4    7    1        -0.3290233705E-01      0.1152484799E+00
          0                 3           2             4    7     1      -0.2310312953E-01       5    6    1        -0.1241187062E+01      0.3054255384E+01
          0                 4           2             4    7     1       0.2408949236E-01       5    6    1         0.1329886167E+01      0.3230851149E+01
          0                 5           2             4    7     1      -0.9582941324E-03       4    8    1        -0.5440659365E-01      0.1223596375E+00
          0                 6           1             5    8     1       0.3035010442E-04       5    8    1         0.1748073526E-02      0.2335080225E-02

    ------------------------------------------------
       NWT REQUIRED            6 OUTER ITERATIONS 
       AND A TOTAL OF         11 INNER ITERATIONS.
    ------------------------------------------------

 NO OUTPUT CONTROL FOR STRESS PERIOD   30   TIME STEP   18
 
 SOLVING FOR HEAD 
                                                   Max.-Head-Change                         Max.-Flux-Residual
  Residual-Control   Outer-Iter.   Inner-Iter.     Column Row Layer    Maximum-Head-Change  Column Row Layer    Maximum-Flux-Residual          L2-NORM 
          0                 1           2             4    7     1       0.6264355669E-02       4    7    1         0.3272527625E+00      0.1140000949E+01
          0                 2           2             4    7     1      -0.6089770148E-03       4    7    1        -0.3272532063E-01      0.1144459894E+00
          0                 3           2             4    7     1      -0.2310387723E-01       5    6    1        -0.1241221613E+01      0.3054342651E+01
          0                 4           2             4    7     1       0.2409004863E-01       5    6    1         0.1329916600E+01      0.3231013298E+01
          0                 5           2             4    7     1      -0.9583176373E-03       4    8    1        -0.5440785085E-01      0.1223421075E+00
          0                 6           1             5    8     1       0.2984039956E-04       5    8    1         0.1718353309E-02      0.2312885654E-02

    ------------------------------------------------
       NWT REQUIRED            6 OUTER ITERATIONS 
       AND A TOTAL OF         11 INNER ITERATIONS.
    ------------------------------------------------

 NO OUTPUT CONTROL FOR STRESS PERIOD   30   TIME STEP   19
 
 SOLVING FOR HEAD 
                                                   Max.-Head-Change                         Max.-Flux-Residual
  Residual-Control   Outer-Iter.   Inner-Iter.     Column Row Layer    Maximum-Head-Change  Column Row Layer    Maximum-Flux-Residual          L2-NORM 
          0                 1           2             4    7     1       0.6231243893E-02       4    7    1         0.3255136200E+00      0.1132237036E+01
          0                 2           2             4    7     1      -0.6057583051E-03       4    7    1        -0.3255143557E-01      0.1136890291E+00
          0                 3           2             4    7     1      -0.2310460880E-01       5    6    1        -0.1241255576E+01      0.3054429168E+01
          0                 4           2             4    7     1       0.2409059306E-01       5    6    1         0.1329946396E+01      0.3231174507E+01
          0                 5           2             4    7     1      -0.9583378782E-03       4    8    1        -0.5440892260E-01      0.1223243545E+00
          0                 6           1             5    8     1       0.2932505160E-04       5    8    1         0.1688309017E-02      0.2290385316E-02

    ------------------------------------------------
       NWT REQUIRED            6 OUTER ITERATIONS 
       AND A TOTAL OF         11 INNER ITERATIONS.
    ------------------------------------------------

 NO OUTPUT CONTROL FOR STRESS PERIOD   30   TIME STEP   20
 
 SOLVING FOR HEAD 
                                                   Max.-Head-Change                         Max.-Flux-Residual
  Residual-Control   Outer-Iter.   Inner-Iter.     Column Row Layer    Maximum-Head-Change  Column Row Layer    Maximum-Flux-Residual          L2-NORM 
          0                 1           2             4    7     1       0.6198280773E-02       4    7    1         0.3237820554E+00      0.1124895606E+01
          0                 2           2             4    7     1      -0.6025529323E-03       4    7    1        -0.3237824888E-01      0.1129725702E+00
          0                 3           2             4    7     1      -0.2310532947E-01       5    6    1        -0.1241289014E+01      0.3054513726E+01
          0                 4           2             4    7     1       0.2409112595E-01       5    6    1         0.1329975559E+01      0.3231333183E+01
          0                 5           2             4    7     1      -0.9583632483E-03       4    8    1        -0.5441028596E-01      0.1223077236E+00
          0                 6           1             5    8     1       0.2881985747E-04       5    8    1         0.1658846701E-02      0.2268974644E-02

    ------------------------------------------------
       NWT REQUIRED            6 OUTER ITERATIONS 
       AND A TOTAL OF         11 INNER ITERATIONS.
    ------------------------------------------------

 NO OUTPUT CONTROL FOR STRESS PERIOD   30   TIME STEP   21
 
 SOLVING FOR HEAD 
                                                   Max.-Head-Change                         Max.-Flux-Residual
  Residual-Control   Outer-Iter.   Inner-Iter.     Column Row Layer    Maximum-Head-Change  Column Row Layer    Maximum-Flux-Residual          L2-NORM 
          0                 1           2             4    7     1       0.6165873853E-02       4    7    1         0.3220801871E+00      0.1117959709E+01
          0                 2           2             4    7     1      -0.5994027789E-03       4    7    1        -0.3220809130E-01      0.1122936879E+00
          0                 3           2             4    7     1      -0.2310603410E-01       5    6    1        -0.1241321797E+01      0.3054597295E+01
          0                 4           2             4    7     1       0.2409164700E-01       5    6    1         0.1330004080E+01      0.3231490782E+01
          0                 5           2             4    7     1      -0.9583825526E-03       4    8    1        -0.5441130478E-01      0.1222905477E+00
          0                 6           1             5    8     1       0.2830719923E-04       5    8    1         0.1628959206E-02      0.2246940231E-02

    ------------------------------------------------
       NWT REQUIRED            6 OUTER ITERATIONS 
       AND A TOTAL OF         11 INNER ITERATIONS.
    ------------------------------------------------

 NO OUTPUT CONTROL FOR STRESS PERIOD   30   TIME STEP   22
 
 SOLVING FOR HEAD 
                                                   Max.-Head-Change                         Max.-Flux-Residual
  Residual-Control   Outer-Iter.   Inner-Iter.     Column Row Layer    Maximum-Head-Change  Column Row Layer    Maximum-Flux-Residual          L2-NORM 
          0                 1           2             4    7     1       0.6133735028E-02       4    7    1         0.3203924981E+00      0.1111364514E+01
          0                 2           2             4    7     1      -0.5962781443E-03       4    7    1        -0.3203932189E-01      0.1116477418E+00
          0                 3           2             4    7     1      -0.2310673086E-01       5    6    1        -0.1241354255E+01      0.3054679969E+01
          0                 4           2             4    7     1       0.2409216248E-01       5    6    1         0.1330032301E+01      0.3231647343E+01
          0                 5           2             4    7     1      -0.9584086331E-03       4    8    1        -0.5441270841E-01      0.1222745643E+00
          0                 6           1             5    8     1       0.2780097070E-04       5    8    1         0.1599436502E-02      0.2225853741E-02

    ------------------------------------------------
       NWT REQUIRED            6 OUTER ITERATIONS 
       AND A TOTAL OF         11 INNER ITERATIONS.
    ------------------------------------------------

 NO OUTPUT CONTROL FOR STRESS PERIOD   30   TIME STEP   23
 
 SOLVING FOR HEAD 
                                                   Max.-Head-Change                         Max.-Flux-Residual
  Residual-Control   Outer-Iter.   Inner-Iter.     Column Row Layer    Maximum-Head-Change  Column Row Layer    Maximum-Flux-Residual          L2-NORM 
          0                 1           2             4    7     1       0.6101857486E-02       4    7    1         0.3187187098E+00      0.1105086969E+01
          0                 2           2             4    7     1      -0.5931789328E-03       4    7    1        -0.3187194260E-01      0.1110314753E+00
          0                 3           2             4    7     1      -0.2310741477E-01       5    6    1        -0.1241386174E+01      0.3054761637E+01
          0                 4           2             4    7     1       0.2409266345E-01       5    6    1         0.1330059728E+01      0.3231802339E+01
          0                 5           2             4    7     1      -0.9584285397E-03       4    8    1        -0.5441376134E-01      0.1222580377E+00
          0                 6           1             5    8     1       0.2729062184E-04       5    8    1         0.1569678597E-02      0.2204535458E-02

    ------------------------------------------------
       NWT REQUIRED            6 OUTER ITERATIONS 
       AND A TOTAL OF         11 INNER ITERATIONS.
    ------------------------------------------------

 NO OUTPUT CONTROL FOR STRESS PERIOD   30   TIME STEP   24
 
 SOLVING FOR HEAD 
                                                   Max.-Head-Change                         Max.-Flux-Residual
  Residual-Control   Outer-Iter.   Inner-Iter.     Column Row Layer    Maximum-Head-Change  Column Row Layer    Maximum-Flux-Residual          L2-NORM 
          0                 1           2             4    7     1       0.6070374178E-02       4    7    1         0.3170657977E+00      0.1099104036E+01
          0                 2           2             4    7     1      -0.5901180615E-03       4    7    1        -0.3170665093E-01      0.1104436590E+00
          0                 3           2             4    7     1      -0.2310808937E-01       5    6    1        -0.1241417727E+01      0.3054842421E+01
          0                 4           2             4    7     1       0.2409315877E-01       5    6    1         0.1330086852E+01      0.3231956156E+01
          0                 5           2             4    7     1      -0.9584496159E-03       4    8    1        -0.5441488100E-01      0.1222420416E+00
          0                 6           1             5    8     1       0.2678260142E-04       5    8    1         0.1540056396E-02      0.2183515677E-02

    ------------------------------------------------
       NWT REQUIRED            6 OUTER ITERATIONS 
       AND A TOTAL OF         11 INNER ITERATIONS.
    ------------------------------------------------

 NO OUTPUT CONTROL FOR STRESS PERIOD   30   TIME STEP   25
 
 SOLVING FOR HEAD 
                                                   Max.-Head-Change                         Max.-Flux-Residual
  Residual-Control   Outer-Iter.   Inner-Iter.     Column Row Layer    Maximum-Head-Change  Column Row Layer    Maximum-Flux-Residual          L2-NORM 
          0                 1           2             4    7     1       0.6039140703E-02       4    7    1         0.3154259971E+00      0.1093385813E+01
          0                 2           2             4    7     1      -0.5870814842E-03       4    7    1        -0.3154267040E-01      0.1098801273E+00
          0                 3           2             4    7     1      -0.2310875119E-01       5    6    1        -0.1241448732E+01      0.3054921735E+01
          0                 4           2             4    7     1       0.2409364243E-01       5    6    1         0.1330113341E+01      0.3232107960E+01
          0                 5           2             4    7     1      -0.9584702201E-03       4    8    1        -0.5441597422E-01      0.1222263898E+00
          0                 6           1             5    8     1       0.2627733534E-04       5    8    1         0.1510594778E-02      0.2162803226E-02

    ------------------------------------------------
       NWT REQUIRED            6 OUTER ITERATIONS 
       AND A TOTAL OF         11 INNER ITERATIONS.
    ------------------------------------------------

 NO OUTPUT CONTROL FOR STRESS PERIOD   30   TIME STEP   26
 
 SOLVING FOR HEAD 
                                                   Max.-Head-Change                         Max.-Flux-Residual
  Residual-Control   Outer-Iter.   Inner-Iter.     Column Row Layer    Maximum-Head-Change  Column Row Layer    Maximum-Flux-Residual          L2-NORM 
          0                 1           2             4    7     1       0.6008285243E-02       4    7    1         0.3138064802E+00      0.1087905639E+01
          0                 2           2             4    7     1      -0.5840816688E-03       4    7    1        -0.3138071826E-01      0.1093388303E+00
          0                 3           2             4    7     1      -0.2310940158E-01       5    6    1        -0.1241479186E+01      0.3055000185E+01
          0                 4           2             4    7     1       0.2409411669E-01       5    6    1         0.1330139315E+01      0.3232258054E+01
          0                 5           2             4    7     1      -0.9584904433E-03       4    8    1        -0.5441704639E-01      0.1222110773E+00
          0                 6           1             5    8     1       0.2577481567E-04       5    8    1         0.1481293269E-02      0.2142411574E-02

    ------------------------------------------------
       NWT REQUIRED            6 OUTER ITERATIONS 
       AND A TOTAL OF         11 INNER ITERATIONS.
    ------------------------------------------------

 NO OUTPUT CONTROL FOR STRESS PERIOD   30   TIME STEP   27
 
 SOLVING FOR HEAD 
                                                   Max.-Head-Change                         Max.-Flux-Residual
  Residual-Control   Outer-Iter.   Inner-Iter.     Column Row Layer    Maximum-Head-Change  Column Row Layer    Maximum-Flux-Residual          L2-NORM 
          0                 1           2             4    7     1       0.5977798029E-02       4    7    1         0.3122065636E+00      0.1082647407E+01
          0                 2           2             4    7     1      -0.5811176783E-03       4    7    1        -0.3122072617E-01      0.1088196912E+00
          0                 3           2             4    7     1      -0.2311004061E-01       5    6    1        -0.1241509208E+01      0.3055077257E+01
          0                 4           2             4    7     1       0.2409458157E-01       5    6    1         0.1330164782E+01      0.3232407092E+01
          0                 5           2             4    7     1      -0.9585102970E-03       4    8    1        -0.5441809735E-01      0.1221959421E+00
          0                 6           1             5    8     1       0.2527107522E-04       5    8    1         0.1451920542E-02      0.2122175942E-02

    ------------------------------------------------
       NWT REQUIRED            6 OUTER ITERATIONS 
       AND A TOTAL OF         11 INNER ITERATIONS.
    ------------------------------------------------

 NO OUTPUT CONTROL FOR STRESS PERIOD   30   TIME STEP   28
 
 SOLVING FOR HEAD 
                                                   Max.-Head-Change                         Max.-Flux-Residual
  Residual-Control   Outer-Iter.   Inner-Iter.     Column Row Layer    Maximum-Head-Change  Column Row Layer    Maximum-Flux-Residual          L2-NORM 
          0                 1           2             4    7     1       0.5947538204E-02       4    7    1         0.3106184099E+00      0.1077592821E+01
          0                 2           2             4    7     1      -0.5781757959E-03       4    7    1        -0.3106191038E-01      0.1083188613E+00
          0                 3           2             4    7     1      -0.2311067146E-01       5    6    1        -0.1241538852E+01      0.3055153603E+01
          0                 4           2             4    7     1       0.2409503943E-01       5    6    1         0.1330189865E+01      0.3232554665E+01
          0                 5           2             4    7     1      -0.9585298622E-03       4    8    1        -0.5441913232E-01      0.1221812157E+00
          0                 6           1             5    8     1       0.2477067855E-04       5    8    1         0.1422742754E-02      0.2102293392E-02

    ------------------------------------------------
       NWT REQUIRED            6 OUTER ITERATIONS 
       AND A TOTAL OF         11 INNER ITERATIONS.
    ------------------------------------------------

 NO OUTPUT CONTROL FOR STRESS PERIOD   30   TIME STEP   29
 
 SOLVING FOR HEAD 
                                                   Max.-Head-Change                         Max.-Flux-Residual
  Residual-Control   Outer-Iter.   Inner-Iter.     Column Row Layer    Maximum-Head-Change  Column Row Layer    Maximum-Flux-Residual          L2-NORM 
          0                 1           2             4    7     1       0.5917500320E-02       4    7    1         0.3090420466E+00      0.1072718187E+01
          0                 2           2             4    7     1      -0.5752552155E-03       4    7    1        -0.3090425877E-01      0.1078356413E+00
          0                 3           2             4    7     1      -0.2311129446E-01       5    6    1        -0.1241568191E+01      0.3055229235E+01
          0                 4           2             4    7     1       0.2409549029E-01       5    6    1         0.1330214568E+01      0.3232700725E+01
          0                 5           2             4    7     1      -0.9585421368E-03       4    8    1        -0.5441975415E-01      0.1221659793E+00
          0                 6           1             5    8     1       0.2426347999E-04       5    8    1         0.1393188351E-02      0.2081309387E-02

    ------------------------------------------------
       NWT REQUIRED            6 OUTER ITERATIONS 
       AND A TOTAL OF         11 INNER ITERATIONS.
    ------------------------------------------------

 NO OUTPUT CONTROL FOR STRESS PERIOD   30   TIME STEP   30



 STREAM LISTING     PERIOD     30   STEP       30

 LAYER ROW COL. STREAM  RCH.  FLOW INTO     FLOW TO   FLOW OUT OF   OVRLND.     DIRECT     STREAM       STREAM     STREAM     STREAM   STREAMBED  STREAMBED
                SEG.NO.  NO.  STRM. RCH.    AQUIFER    STRM. RCH.    RUNOFF     PRECIP       ET          HEAD       DEPTH      WIDTH   CONDCTNC.   GRADIENT

   1    1    1     1     1    3.7124E+01  2.9395E-01   3.6830E+01  0.000E+00  0.000E+00  0.000E+00  1.09436E+03  1.309E+00  1.516E+01  6.821E-02  1.436E+00
   1    2    2     1     2    3.6830E+01  4.5517E-01   3.6375E+01  0.000E+00  0.000E+00  0.000E+00  1.08936E+03  1.306E+00  1.510E+01  1.057E-01  1.435E+00
   1    3    3     1     3    3.6375E+01  3.8813E-01   3.5987E+01  0.000E+00  0.000E+00  0.000E+00  1.08372E+03  1.303E+00  1.503E+01  9.020E-02  1.434E+00
   1    3    4     1     4    3.5987E+01  3.5736E-01   3.5629E+01  0.000E+00  0.000E+00  0.000E+00  1.07871E+03  1.300E+00  1.497E+01  8.311E-02  1.433E+00
   1    4    5     2     1    3.3629E+01  3.4618E-01   3.3283E+01  0.000E+00  0.000E+00  0.000E+00  1.07337E+03  1.438E+00  1.200E+01  7.800E-02  1.479E+00
   1    5    6     2     2    3.3283E+01  2.6582E-01   3.3017E+01  0.000E+00  0.000E+00  0.000E+00  1.06794E+03  1.430E+00  1.200E+01  6.000E-02  1.477E+00
   1    6    6     2     3    3.3017E+01  2.6541E-01   3.2752E+01  0.000E+00  0.000E+00  0.000E+00  1.06322E+03  1.423E+00  1.200E+01  6.000E-02  1.474E+00
   1    7    6     2     4    3.2752E+01  2.6499E-01   3.2487E+01  0.000E+00  0.000E+00  0.000E+00  1.05849E+03  1.417E+00  1.200E+01  6.000E-02  1.472E+00
   1    8    6     2     5    3.2487E+01  2.6458E-01   3.2222E+01  0.000E+00  0.000E+00  0.000E+00  1.05377E+03  1.410E+00  1.200E+01  6.000E-02  1.470E+00
   1    3    5     3     1    2.0000E+00  2.8252E-01   1.7175E+00  0.000E+00  0.000E+00  0.000E+00  1.07555E+03  1.909E+00  9.636E+00  7.227E-02  1.955E+00
   1    3    6     3     2    1.7175E+00  2.4905E-01   1.4684E+00  0.000E+00  0.000E+00  0.000E+00  1.07264E+03  1.727E+00  8.909E+00  6.682E-02  1.864E+00
   1    3    7     3     3    1.4684E+00  1.9718E-01   1.2712E+00  0.000E+00  0.000E+00  0.000E+00  1.06987E+03  1.555E+00  8.218E+00  5.547E-02  1.777E+00
   1    4    8     3     4    1.2712E+00  2.2567E-01   1.0456E+00  0.000E+00  0.000E+00  0.000E+00  1.06682E+03  1.364E+00  7.455E+00  6.709E-02  1.682E+00
   1    5    8     3     5    1.0456E+00  1.5790E-01   8.8768E-01  0.000E+00  0.000E+00  0.000E+00  1.06362E+03  1.164E+00  6.655E+00  4.991E-02  1.582E+00
   1    6    8     3     6    8.8768E-01  5.5980E-02   8.3170E-01  0.000E+00  0.000E+00  0.000E+00  1.06158E+03  1.036E+00  6.145E+00  1.844E-02  1.518E+00
   1    5   10     4     1    1.0000E+01  9.0919E-02   9.9091E+00  0.000E+00  0.000E+00  0.000E+00  1.07836E+03  6.368E-01  1.000E+01  2.500E-02  1.212E+00
   1    5    9     4     2    9.9091E+00  1.8158E-01   9.7275E+00  0.000E+00  0.000E+00  0.000E+00  1.07154E+03  6.315E-01  1.000E+01  5.000E-02  1.211E+00
   1    6    8     4     3    9.7275E+00  1.2689E-01   9.6006E+00  0.000E+00  0.000E+00  0.000E+00  1.06381E+03  6.256E-01  1.000E+01  3.500E-02  1.209E+00
   1    6    8     5     1    1.0432E+01  2.2686E-01   1.0205E+01  0.000E+00  0.000E+00  0.000E+00  1.05868E+03  6.790E-01  1.542E+01  6.166E-02  1.226E+00
   1    7    7     5     2    1.0205E+01  2.7894E-01   9.9265E+00  0.000E+00  0.000E+00  0.000E+00  1.05417E+03  6.732E-01  1.519E+01  7.594E-02  1.224E+00
   1    8    7     5     3    9.9265E+00  1.9221E-01   9.7343E+00  0.000E+00  0.000E+00  0.000E+00  1.04992E+03  6.676E-01  1.497E+01  5.241E-02  1.223E+00
   1    8    6     5     4    9.7343E+00  1.3577E-01   9.5985E+00  0.000E+00  0.000E+00  0.000E+00  1.04691E+03  6.637E-01  1.482E+01  3.706E-02  1.221E+00
   1    9    6     6     1    3.4361E+01  2.6846E-01   3.4093E+01  0.000E+00  0.000E+00  0.000E+00  1.04420E+03  1.474E+00  1.200E+01  6.000E-02  1.491E+00
   1   10    7     6     2    3.4093E+01  2.6804E-01   3.3825E+01  0.000E+00  0.000E+00  0.000E+00  1.03965E+03  1.467E+00  1.200E+01  6.000E-02  1.489E+00
   1   11    7     6     3    3.3825E+01  2.6763E-01   3.3557E+01  0.000E+00  0.000E+00  0.000E+00  1.03510E+03  1.460E+00  1.200E+01  6.000E-02  1.487E+00
   1   12    7     6     4    3.3557E+01  2.6721E-01   3.3290E+01  0.000E+00  0.000E+00  0.000E+00  1.03054E+03  1.453E+00  1.200E+01  6.000E-02  1.484E+00
   1   13    7     6     5    3.3290E+01  1.9140E-02   3.3271E+01  0.000E+00  0.000E+00  0.000E+00  1.02736E+03  1.450E+00  1.200E+01  2.400E-02  2.658E-01
   1   14    9     7     1    1.5000E+02  1.3884E+00   1.4861E+02  0.000E+00  0.000E+00  0.000E+00  1.03987E+03  2.288E+00  5.529E+01  5.593E-01  8.275E-01
   1   13    8     7     2    1.4861E+02  2.0020E+00   1.4661E+02  0.000E+00  0.000E+00  0.000E+00  1.03478E+03  2.279E+00  5.525E+01  6.147E-01  1.086E+00
   1   13    7     7     3    1.4661E+02  1.7458E+00   1.4486E+02  0.000E+00  0.000E+00  0.000E+00  1.02969E+03  2.269E+00  5.521E+01  5.584E-01  1.042E+00
   1   13    6     8     1    1.7813E+02  1.2208E+00   1.7691E+02  0.000E+00  0.000E+00  0.000E+00  1.02488E+03  3.001E+00  4.351E+01  4.434E-01  9.178E-01
   1   13    5     8     2    1.7691E+02  4.3217E-01   1.7648E+02  0.000E+00  0.000E+00  0.000E+00  1.01862E+03  2.995E+00  4.343E+01  4.426E-01  3.255E-01
   1   13    4     8     3    1.7648E+02 -1.6180E+00   1.7810E+02  0.000E+00  0.000E+00  0.000E+00  1.01237E+03  2.999E+00  4.349E+01  4.431E+00 -1.217E-01
   1   13    3     8     4    1.7810E+02 -3.2312E+00   1.8133E+02  0.000E+00  0.000E+00  0.000E+00  1.00614E+03  3.014E+00  4.371E+01  4.454E+00 -2.418E-01
   1   13    2     8     5    1.8133E+02 -2.4341E+00   1.8376E+02  0.000E+00  0.000E+00  0.000E+00  9.99907E+02  3.032E+00  4.397E+01  4.480E+00 -1.811E-01
   1   13    1     8     6    1.8376E+02 -1.9109E+00   1.8568E+02  0.000E+00  0.000E+00  0.000E+00  9.94921E+02  3.046E+00  4.416E+01  2.700E+00 -2.359E-01
   1    8    6     9     1    7.4598E+00  0.0000E+00   7.4598E+00  0.000E+00  0.000E+00  0.000E+00  1.08065E+03  1.901E+00  4.000E+00  0.000E+00  1.634E+00
   1    8    5     9     2    7.4598E+00  0.0000E+00   7.4598E+00  0.000E+00  0.000E+00  0.000E+00  1.08015E+03  1.901E+00  4.000E+00  0.000E+00  1.634E+00





UNSATURATED ZONE PACKAGE VOLUMETRIC BUDGET FOR  TIME STEP    30 STRESS PERIOD   30
  ------------------------------------------------------------------------------



     CUMULATIVE VOLUMES      L**3       RATES FOR THIS TIME STEP      L**3/T
     ------------------                 ------------------------

           IN:                                      IN:
           ---                                      ---
        INFILTRATION =  1145800538.0228          INFILTRATION =           8.3074

          OUT:                                     OUT:
          ----                                     ----
              UZF ET =   893536465.0163                UZF ET =           8.3175
        UZF RECHARGE =      685161.6790          UZF RECHARGE =           0.0647

            IN - OUT =   251578911.3275              IN - OUT =      -7.4753E-02

          STORAGE:                                 STORAGE:
          --------                                 --------
      STORAGE CHANGE =   251583150.3784        STORAGE CHANGE =      -7.4753E-02

 PERCENT DISCREPANCY IS DIFFERENCE BETWEEN IN-OUT MINUS CHANGE IN STORAGE
 DIVIDED BY THE AVERAGE OF IN AND OUT TIMES 100

 PERCENT DISCREPANCY =          -0.00     PERCENT DISCREPANCY =           0.00






1
  VOLUMETRIC BUDGET FOR AGRICULTURAL FIELDS AT  END OF TIME STEP   30, STRESS PERIOD  30
  ------------------------------------------------------------------------------

     CUMULATIVE VOLUMES      L**3       RATES FOR THIS TIME STEP      L**3/T
     ------------------                 ------------------------

           IN:                                      IN:
           ---                                      ---
               AG WELLS  =   697628416.0000                 AG WELLS  =       1.4305E-06
      DIVERSION SEGMENTS =   383555072.0000        DIVERSION SEGMENTS =           7.4598
       IRRIGATION PONDS  =           0.0000         IRRIGATION PONDS  =           0.0000
           GW IRRIGATION =           0.0000             GW IRRIGATION =           0.0000
           SW IRRIGATION =           0.0000             SW IRRIGATION =           0.0000
        SYSTEM LOSSES GW =           0.0000          SYSTEM LOSSES GW =           0.0000
        SYSTEM LOSSES SW =           0.0000          SYSTEM LOSSES SW =           0.0000

                TOTAL IN =  1081183488.0000                  TOTAL IN =           7.4598

          OUT:                                     OUT:
          ----                                     ----
               AG WELLS  =           0.0000                 AG WELLS  =           0.0000
      DIVERSION SEGMENTS =           0.0000        DIVERSION SEGMENTS =           0.0000
       IRRIGATION PONDS  =           0.0000         IRRIGATION PONDS  =           0.0000
           GW IRRIGATION =   697628416.0000             GW IRRIGATION =       1.4305E-06
           SW IRRIGATION =   383562528.0000             SW IRRIGATION =           7.4599
        SYSTEM LOSSES GW =           0.0000          SYSTEM LOSSES GW =           0.0000
        SYSTEM LOSSES SW =           0.0000          SYSTEM LOSSES SW =           0.0000

               TOTAL OUT =  1081190912.0000                 TOTAL OUT =           7.4599

                IN - OUT =       -7424.0000                  IN - OUT =      -1.4925E-04

     PERCENT DISCREPANCY =          -0.00         PERCENT DISCREPANCY =          -0.00



1
  VOLUMETRIC BUDGET FOR ENTIRE MODEL AT END OF TIME STEP   30, STRESS PERIOD  30
  ------------------------------------------------------------------------------

     CUMULATIVE VOLUMES      L**3       RATES FOR THIS TIME STEP      L**3/T
     ------------------                 ------------------------

           IN:                                      IN:
           ---                                      ---
             STORAGE     =  1118320512.0000               STORAGE     =           1.6071
       CONSTANT HEAD     =           0.0000         CONSTANT HEAD     =           0.0000
     HEAD DEP BOUNDS     =    22014936.0000       HEAD DEP BOUNDS     =           0.2893
      STREAM LEAKAGE     =   907482816.0000        STREAM LEAKAGE     =          13.1827
        UZF RECHARGE     =      685161.6875          UZF RECHARGE     =       6.4659E-02
               GW ET     =           0.0000                 GW ET     =           0.0000
     SURFACE LEAKAGE     =           0.0000       SURFACE LEAKAGE     =           0.0000
           AG WELLS      =           0.0000             AG WELLS      =           0.0000

                TOTAL IN =  2048503424.0000                  TOTAL IN =          15.1438

          OUT:                                     OUT:
          ----                                     ----
             STORAGE     =   569336000.0000               STORAGE     =           5.6594
       CONSTANT HEAD     =           0.0000         CONSTANT HEAD     =           0.0000
     HEAD DEP BOUNDS     =    21983474.0000       HEAD DEP BOUNDS     =           0.2899
      STREAM LEAKAGE     =   759565056.0000        STREAM LEAKAGE     =           9.1942
        UZF RECHARGE     =           0.0000          UZF RECHARGE     =           0.0000
               GW ET     =           0.0000                 GW ET     =           0.0000
     SURFACE LEAKAGE     =           0.0000       SURFACE LEAKAGE     =           0.0000
           AG WELLS      =   697628416.0000             AG WELLS      =       1.4305E-06

               TOTAL OUT =  2048513024.0000                 TOTAL OUT =          15.1435

                IN - OUT =       -9600.0000                  IN - OUT =       2.7657E-04

     PERCENT DISCREPANCY =          -0.00         PERCENT DISCREPANCY =           0.00






         TIME SUMMARY AT END OF TIME STEP   30 IN STRESS PERIOD   30
                    SECONDS     MINUTES      HOURS       DAYS        YEARS
                    -----------------------------------------------------------
   TIME STEP LENGTH  87667.      1461.1      24.352      1.0147     2.77799E-03
 STRESS PERIOD TIME 2.63000E+06  43833.      730.56      30.440     8.33397E-02
         TOTAL TIME 7.63565E+07 1.27261E+06  21210.      883.76      2.4196    
1
1
                            STRESS PERIOD NO.   31, LENGTH =   2630000.    
                            -----------------------------------------------

                              NUMBER OF TIME STEPS =    30

                               MULTIPLIER FOR DELT =     1.000

                            INITIAL TIME STEP SIZE =   87666.66    

 REUSING NON-PARAMETER GHB CELLS FROM LAST STRESS PERIOD

      2 GHB CELLS

 REUSING STREAM SEGMENT DATA FROM LAST STRESS PERIOD



            AREAL INFILTRATION RATE
 READING ON UNIT   19 WITH FORMAT: (FREE)              

            1           2           3           4           5           6           7           8           9          10
 ........................................................................................................................
   1   1.0000E-10  2.0000E-10   0.000       0.000       0.000       0.000       0.000       0.000       0.000       0.000    
   2   2.0000E-10  1.0000E-10  2.0000E-10   0.000       0.000      8.0000E-10  8.0000E-10  5.0000E-10   0.000       0.000    
   3    0.000      5.0000E-10  1.0000E-10  1.0000E-10  8.0000E-10  8.0000E-10  5.0000E-10  5.0000E-10   0.000       0.000    
   4   8.0000E-10  5.0000E-10  1.0000E-10  1.0000E-10  1.0000E-10  1.0000E-10  1.0000E-10  1.0000E-10  2.0000E-10   0.000    
   5   8.0000E-10  5.0000E-10  1.0000E-10  1.0000E-10  1.0000E-10  1.0000E-10  1.0000E-10  1.0000E-10  1.0000E-10  1.0000E-10
   6   8.0000E-10  5.0000E-10  5.0000E-10  2.0000E-10  2.0000E-10  1.0000E-10  1.0000E-10  1.0000E-10  1.0000E-10  5.0000E-10
   7   8.0000E-10  5.0000E-10  5.0000E-10  2.0000E-10  2.0000E-10  1.0000E-10  1.0000E-10  2.0000E-10  2.0000E-10   0.000    
   8    0.000      5.0000E-10  5.0000E-10  2.0000E-10  2.0000E-10  1.0000E-10  1.0000E-10  2.0000E-10  5.0000E-10   0.000    
   9    0.000      5.0000E-10  5.0000E-10  2.0000E-10  2.0000E-10  1.0000E-10  1.0000E-10  2.0000E-10  5.0000E-10   0.000    
  10    0.000      5.0000E-10  5.0000E-10  2.0000E-10  2.0000E-10  1.0000E-10  1.0000E-10  2.0000E-10  5.0000E-10  8.0000E-10
  11    0.000      1.0000E-10  1.0000E-10  1.0000E-10  1.0000E-10  1.0000E-10  1.0000E-10  2.0000E-10  5.0000E-10   0.000    
  12   1.0000E-10  1.0000E-10  1.0000E-10  1.0000E-10  1.0000E-10  1.0000E-10  1.0000E-10  1.0000E-10  2.0000E-10   0.000    
  13   1.0000E-10  1.0000E-10  2.0000E-10  2.0000E-10  2.0000E-10  2.0000E-10  2.0000E-10  1.0000E-10  1.0000E-10   0.000    
  14    0.000      2.0000E-10  5.0000E-10  5.0000E-10  5.0000E-10  5.0000E-10  5.0000E-10  2.0000E-10  1.0000E-10   0.000    
  15    0.000       0.000      8.0000E-10  8.0000E-10  8.0000E-10  8.0000E-10   0.000       0.000       0.000       0.000    

                  ET RATE =  1.500000E-07

 USING ET EXTINCTION DEPTH FROM PREVIOUS STRESS PERIOD. CURRENT PERIOD IS:      31

 USING EXTINCTION WATER CONTENT FROM PREVIOUS STRESS PERIOD. CURRENT PERIOD IS:      31

 USING AIR ENTRY PRESSURE FROM PREVIOUS STRESS PERIOD. CURRENT PERIOD IS:      31

 USING ROOT PRESSURE HEAD FROM PREVIOUS STRESS PERIOD. CURRENT PERIOD IS:      31

 USING ROOT ACTIVITY FROM PREVIOUS STRESS PERIOD. CURRENT PERIOD IS:      31

 PROCESSING AG STRESS PERIOD DATA

 READING AG STRESS PERIOD DATA

 READING IRRIGATION SEGMENT

 READING IRRIGATION WELL

 READING SUPPLEMENTAL WELL

 NO IRRPOND OR REUSING IRRPOND DATA FROM LAST STRESS PERIOD

 END PROCESSING AG STRESS PERIOD DATA OPTIONS
 
 SOLVING FOR HEAD 
                                                   Max.-Head-Change                         Max.-Flux-Residual
  Residual-Control   Outer-Iter.   Inner-Iter.     Column Row Layer    Maximum-Head-Change  Column Row Layer    Maximum-Flux-Residual          L2-NORM 
          0                 1           2             4   13     1      -0.6975814708E-02       4   13    1        -0.3998243289E+00      0.1181086608E+01
          0                 2           2             4    7     1      -0.4396401771E-01       4    7    1        -0.2360999003E+01      0.5758548668E+01
          0                 3           2             4    7     1       0.2345958711E-01       4    7    1         0.1295089222E+01      0.3146722880E+01
          0                 4           2             4    7     1      -0.9334880818E-03       4    7    1        -0.5296978251E-01      0.1287070907E+00
          0                 5           1             4    7     1       0.1151029796E-04       4    7    1         0.6712895247E-03      0.1631833013E-02

    ------------------------------------------------
       NWT REQUIRED            5 OUTER ITERATIONS 
       AND A TOTAL OF          9 INNER ITERATIONS.
    ------------------------------------------------

 NO OUTPUT CONTROL FOR STRESS PERIOD   31   TIME STEP    1
 
 SOLVING FOR HEAD 
                                                   Max.-Head-Change                         Max.-Flux-Residual
  Residual-Control   Outer-Iter.   Inner-Iter.     Column Row Layer    Maximum-Head-Change  Column Row Layer    Maximum-Flux-Residual          L2-NORM 
          0                 1           2             4    7     1       0.5990529358E-02       4    7    1         0.3123442339E+00      0.1022914945E+01
          0                 2           2             7   13     1      -0.3565703499E-02       7   13    1        -0.1978877941E+00      0.2215029576E+00
          0                 3           2             4    7     1      -0.1281953866E-01       5    8    1        -0.6890773479E+00      0.1695079116E+01
          0                 4           2             4    7     1       0.1223636552E-01       5    8    1         0.6755349889E+00      0.1654648776E+01
          0                 5           2             4    7     1       0.1076726705E-03       4    7    1         0.5943844606E-02      0.1611528244E-01
          0                 6           2             4    7     1       0.1531807605E-03       5    8    1         0.8456038991E-02      0.2122288087E-01
          0                 7           2             4    7     1      -0.1106055385E-03       5    8    1        -0.6275892245E-02      0.1657819892E-01
          0                 8           2             4    7     1      -0.1682497394E-03       4    8    1        -0.9546594692E-02      0.2485535562E-01
          0                 9           2             4    7     1      -0.3076496980E-02       4    8    1        -0.1745606250E+00      0.4305442163E+00
          0                10           2             4    7     1      -0.1528559003E-02       4    8    1        -0.8672968134E-01      0.2233298600E+00
                                                   Max.-Head-Change                         Max.-Flux-Residual
  Residual-Control   Outer-Iter.   Inner-Iter.     Column Row Layer    Maximum-Head-Change  Column Row Layer    Maximum-Flux-Residual          L2-NORM 
          0                11           2             4    7     1       0.4580070294E-02       5    6    1         0.2670924216E+00      0.6542501110E+00
          0                12           2             4    7     1       0.1130005560E-03       5    6    1         0.6589715920E-02      0.1773467862E-01
          0                13           1             4   13     1      -0.8193690858E-04       4   13    1        -0.4827154183E-02      0.1303572895E-01

    ------------------------------------------------
       NWT REQUIRED           13 OUTER ITERATIONS 
       AND A TOTAL OF         25 INNER ITERATIONS.
    ------------------------------------------------

 NO OUTPUT CONTROL FOR STRESS PERIOD   31   TIME STEP    2
 
 SOLVING FOR HEAD 
                                                   Max.-Head-Change                         Max.-Flux-Residual
  Residual-Control   Outer-Iter.   Inner-Iter.     Column Row Layer    Maximum-Head-Change  Column Row Layer    Maximum-Flux-Residual          L2-NORM 
          0                 1           2             4    7     1       0.5972607776E-02       4    7    1         0.3114492762E+00      0.1006520832E+01
          0                 2           2             4    7     1      -0.4272721175E-01       4    7    1        -0.2294512607E+01      0.5641827393E+01
          0                 3           2             4    7     1      -0.1045628186E+00       5    8    1        -0.5615871128E+01      0.1376263509E+02
          0                 4           2             4    7     1       0.4517795561E-01       5    8    1         0.2494020886E+01      0.6107958258E+01
          0                 5           2             4    7     1      -0.1798133006E-02       5    8    1        -0.1020341235E+00      0.2498805375E+00
          0                 6           1             4    7     1       0.2218816559E-04       5    8    1         0.1294040012E-02      0.3169094911E-02

    ------------------------------------------------
       NWT REQUIRED            6 OUTER ITERATIONS 
       AND A TOTAL OF         11 INNER ITERATIONS.
    ------------------------------------------------

 NO OUTPUT CONTROL FOR STRESS PERIOD   31   TIME STEP    3
 
 SOLVING FOR HEAD 
                                                   Max.-Head-Change                         Max.-Flux-Residual
  Residual-Control   Outer-Iter.   Inner-Iter.     Column Row Layer    Maximum-Head-Change  Column Row Layer    Maximum-Flux-Residual          L2-NORM 
          0                 1           2             5    6     1       0.8232715886E-02       5    6    1         0.4395066909E+00      0.1161164840E+01
          0                 2           2             7   13     1      -0.3566867644E-02       7   13    1        -0.1979472485E+00      0.2279739857E+00
          0                 3           2             7   13     1       0.2428213113E-03       7   13    1         0.1385190455E-01      0.1594352094E-01
          0                 4           1             7   13     1      -0.9646599889E-05       7   13    1        -0.5655883333E-03      0.6506175529E-03

    ------------------------------------------------
       NWT REQUIRED            4 OUTER ITERATIONS 
       AND A TOTAL OF          7 INNER ITERATIONS.
    ------------------------------------------------

 NO OUTPUT CONTROL FOR STRESS PERIOD   31   TIME STEP    4
 
 SOLVING FOR HEAD 
                                                   Max.-Head-Change                         Max.-Flux-Residual
  Residual-Control   Outer-Iter.   Inner-Iter.     Column Row Layer    Maximum-Head-Change  Column Row Layer    Maximum-Flux-Residual          L2-NORM 
          0                 1           2             5    6     1       0.8022354311E-02       5    6    1         0.4278710804E+00      0.1133496988E+01
          0                 2           2             5    6     1      -0.1456339370E-02       5    6    1        -0.7994429826E-01      0.1970123502E+00
          0                 3           2             4    7     1      -0.6014742616E-02       4    7    1        -0.3230216019E+00      0.7952449810E+00
          0                 4           2             4   13     1      -0.7990605390E-03       4   13    1        -0.4710857140E-01      0.1203160281E+00
          0                 5           2             4    7     1       0.1706081200E-02       5    6    1         0.9418145057E-01      0.2374821575E+00
          0                 6           2             4    7     1       0.4006679084E-02       4    7    1         0.2211762787E+00      0.5417800899E+00
          0                 7           2             4    7     1       0.1078163372E-03       5    6    1         0.5951624189E-02      0.1497202123E-01
          0                 8           1             4    7     1      -0.4604761385E-04       5    6    1        -0.2612744299E-02      0.7539656778E-02

    ------------------------------------------------
       NWT REQUIRED            8 OUTER ITERATIONS 
       AND A TOTAL OF         15 INNER ITERATIONS.
    ------------------------------------------------

 NO OUTPUT CONTROL FOR STRESS PERIOD   31   TIME STEP    5
 
 SOLVING FOR HEAD 
                                                   Max.-Head-Change                         Max.-Flux-Residual
  Residual-Control   Outer-Iter.   Inner-Iter.     Column Row Layer    Maximum-Head-Change  Column Row Layer    Maximum-Flux-Residual          L2-NORM 
          0                 1           2             5    6     1       0.7833443496E-02       5    6    1         0.4174278527E+00      0.1122877619E+01
          0                 2           2             4    7     1      -0.4377284778E-01       5    6    1        -0.2357730454E+01      0.5795808145E+01
          0                 3           2             4    7     1      -0.2276114806E-01       4    7    1        -0.1222327826E+01      0.3026807275E+01
          0                 4           2             4    7     1       0.3889033174E-01       4    7    1         0.2146858032E+01      0.5258751255E+01
          0                 5           2             4    7     1      -0.1547874494E-02       4    8    1        -0.8783092504E-01      0.2151381553E+00
          0                 6           1             4    7     1       0.1910009284E-04       4    8    1         0.1113908076E-02      0.2728481358E-02

    ------------------------------------------------
       NWT REQUIRED            6 OUTER ITERATIONS 
       AND A TOTAL OF         11 INNER ITERATIONS.
    ------------------------------------------------

 NO OUTPUT CONTROL FOR STRESS PERIOD   31   TIME STEP    6
 
 SOLVING FOR HEAD 
                                                   Max.-Head-Change                         Max.-Flux-Residual
  Residual-Control   Outer-Iter.   Inner-Iter.     Column Row Layer    Maximum-Head-Change  Column Row Layer    Maximum-Flux-Residual          L2-NORM 
          0                 1           2             5    6     1       0.8483336449E-02       5    6    1         0.4530690933E+00      0.1190875190E+01
          0                 2           2             7   13     1      -0.3569064042E-02       7   13    1        -0.1980657638E+00      0.2294493709E+00
          0                 3           2             4    7     1      -0.5392041756E-02       4    7    1        -0.2895831927E+00      0.7119934969E+00
          0                 4           2             4    7     1       0.4359735911E-02       4    7    1         0.2406716550E+00      0.5895994442E+00
          0                 5           2             4    7     1       0.6699527405E-03       5    6    1         0.3698493017E-01      0.9074012928E-01
          0                 6           2             4    7     1      -0.9752930102E-03       5    6    1        -0.5533926974E-01      0.1368487099E+00
          0                 7           2             4    7     1      -0.4154214376E-02       4    8    1        -0.2357123273E+00      0.5822602517E+00
          0                 8           2             4    7     1       0.1081966963E-02       5    6    1         0.6309738523E-01      0.1646377762E+00
          0                 9           2             4    7     1       0.3891177923E-02       5    6    1         0.2269206253E+00      0.5558489312E+00
          0                10           1             4   13     1      -0.6799295158E-04       4   13    1        -0.4007195722E-02      0.1116507274E-01

    ------------------------------------------------
       NWT REQUIRED           10 OUTER ITERATIONS 
       AND A TOTAL OF         19 INNER ITERATIONS.
    ------------------------------------------------

 NO OUTPUT CONTROL FOR STRESS PERIOD   31   TIME STEP    7
 
 SOLVING FOR HEAD 
                                                   Max.-Head-Change                         Max.-Flux-Residual
  Residual-Control   Outer-Iter.   Inner-Iter.     Column Row Layer    Maximum-Head-Change  Column Row Layer    Maximum-Flux-Residual          L2-NORM 
          0                 1           2             5    6     1       0.8277655573E-02       5    6    1         0.4416942041E+00      0.1165556753E+01
          0                 2           2             4    7     1      -0.5001462619E-01       5    6    1        -0.2694236837E+01      0.6623448154E+01
          0                 3           2             4    7     1      -0.1355923998E-01       4    7    1        -0.7281719054E+00      0.1819172740E+01
          0                 4           2             4    7     1       0.3205901232E-01       4    7    1         0.1769748820E+01      0.4334997070E+01
          0                 5           2             4    7     1      -0.1275977481E-02       4    8    1        -0.7240198725E-01      0.1773463014E+00
          0                 6           1             4    7     1       0.1574500875E-04       4    8    1         0.9182329268E-03      0.2249186586E-02

    ------------------------------------------------
       NWT REQUIRED            6 OUTER ITERATIONS 
       AND A TOTAL OF         11 INNER ITERATIONS.
    ------------------------------------------------

 NO OUTPUT CONTROL FOR STRESS PERIOD   31   TIME STEP    8
 
 SOLVING FOR HEAD 
                                                   Max.-Head-Change                         Max.-Flux-Residual
  Residual-Control   Outer-Iter.   Inner-Iter.     Column Row Layer    Maximum-Head-Change  Column Row Layer    Maximum-Flux-Residual          L2-NORM 
          0                 1           2             5    6     1       0.9011291638E-02       5    6    1         0.4819260330E+00      0.1243213993E+01
          0                 2           2             7   13     1      -0.3570730881E-02       7   13    1        -0.1981542716E+00      0.2320783419E+00
          0                 3           2             4    7     1      -0.8387208221E-02       4    7    1        -0.4504302139E+00      0.1107676860E+01
          0                 4           2             4    7     1       0.7737659589E-02       4    7    1         0.4271426286E+00      0.1046228054E+01
          0                 5           2             4    7     1       0.3547592786E-03       5    6    1         0.1958583761E-01      0.4818340693E-01
          0                 6           2             4    7     1      -0.9809273828E-03       5    6    1        -0.5565893835E-01      0.1375197781E+00
          0                 7           2             4    7     1       0.8465926800E-03       5    6    1         0.4937143747E-01      0.1210484150E+00
          0                 8           2             4    7     1      -0.9640689312E-03       4    8    1        -0.5777986750E-01      0.1429844049E+00
          0                 9           2             4    7     1      -0.2198786382E-02       4    8    1        -0.1317792234E+00      0.3267547532E+00
          0                10           2             4    7     1       0.2974495077E-02       5    6    1         0.1831920779E+00      0.4487361474E+00
                                                   Max.-Head-Change                         Max.-Flux-Residual
  Residual-Control   Outer-Iter.   Inner-Iter.     Column Row Layer    Maximum-Head-Change  Column Row Layer    Maximum-Flux-Residual          L2-NORM 
          0                11           2             4    7     1      -0.4867236474E-02       4    8    1        -0.3080115062E+00      0.7590989892E+00
          0                12           2             4   13     1      -0.7356969625E-03       4   13    1        -0.4333697106E-01      0.7478457358E-01
          0                13           2             4    7     1       0.4412157727E-02       5    6    1         0.2868680436E+00      0.7026920669E+00
          0                14           2             4    7     1       0.8405601750E-03       5    6    1         0.5465063569E-01      0.1339132471E+00
          0                15           2             4    7     1       0.3414065758E-03       5    6    1         0.2219695066E-01      0.5437172493E-01
          0                16           1             4    7     1       0.3967230697E-04       5    6    1         0.2579312668E-02      0.6318005955E-02

    ------------------------------------------------
       NWT REQUIRED           16 OUTER ITERATIONS 
       AND A TOTAL OF         31 INNER ITERATIONS.
    ------------------------------------------------

 NO OUTPUT CONTROL FOR STRESS PERIOD   31   TIME STEP    9
 
 SOLVING FOR HEAD 
                                                   Max.-Head-Change                         Max.-Flux-Residual
  Residual-Control   Outer-Iter.   Inner-Iter.     Column Row Layer    Maximum-Head-Change  Column Row Layer    Maximum-Flux-Residual          L2-NORM 
          0                 1           2             5    6     1       0.8765565581E-02       5    6    1         0.4683390332E+00      0.1219509774E+01
          0                 2           2             4    7     1      -0.1608699462E-01       5    6    1        -0.8736603896E+00      0.2142570832E+01
          0                 3           2             4    7     1      -0.1483958180E-01       4    7    1        -0.7969303281E+00      0.1989779272E+01
          0                 4           2             4    7     1       0.3064195217E-01       4    7    1         0.1691523796E+01      0.4143331309E+01
          0                 5           2             4    7     1      -0.8990692845E-03       4    8    1        -0.5101531375E-01      0.1252019568E+00
          0                 6           2             4    7     1      -0.1128468000E-03       5    6    1        -0.6403076658E-02      0.1801288054E-01
          0                 7           2             4    7     1      -0.5364874209E-02       4    8    1        -0.3044054923E+00      0.7500879479E+00
          0                 8           2             4    7     1       0.7312808367E-03       5    6    1         0.4264628659E-01      0.1265037225E+00
          0                 9           2             4    7     1       0.4616310975E-02       5    6    1         0.2692076928E+00      0.6594637426E+00
          0                10           1             4   13     1      -0.7745162684E-04       4   13    1        -0.4813489092E-02      0.1288636055E-01

    ------------------------------------------------
       NWT REQUIRED           10 OUTER ITERATIONS 
       AND A TOTAL OF         19 INNER ITERATIONS.
    ------------------------------------------------

 NO OUTPUT CONTROL FOR STRESS PERIOD   31   TIME STEP   10
 
 SOLVING FOR HEAD 
                                                   Max.-Head-Change                         Max.-Flux-Residual
  Residual-Control   Outer-Iter.   Inner-Iter.     Column Row Layer    Maximum-Head-Change  Column Row Layer    Maximum-Flux-Residual          L2-NORM 
          0                 1           2             5    6     1       0.8551801218E-02       5    6    1         0.4565235137E+00      0.1215505566E+01
          0                 2           2             4    7     1      -0.8214553199E-02       5    6    1        -0.4496051868E+00      0.1101280301E+01
          0                 3           2             4    7     1      -0.3715562980E-01       4    7    1        -0.1995335333E+01      0.4920748271E+01
          0                 4           2             4    7     1       0.4557535348E-01       4    7    1         0.2515888471E+01      0.6162641445E+01
          0                 5           2             4    7     1      -0.7253040545E-02       4    8    1        -0.4115519470E+00      0.1011873832E+01
          0                 6           2             4    7     1      -0.1601732219E-02       4    8    1        -0.9088398674E-01      0.2474736072E+00
          0                 7           2             4    7     1       0.7884914872E-02       5    6    1         0.4598308346E+00      0.1126351493E+01
          0                 8           2             4    7     1       0.1158157227E-03       5    6    1         0.6754096194E-02      0.1654396762E-01
          0                 9           1             4    7     1       0.1699990359E-05       5    6    1         0.9913834901E-04      0.2430195271E-03

    ------------------------------------------------
       NWT REQUIRED            9 OUTER ITERATIONS 
       AND A TOTAL OF         17 INNER ITERATIONS.
    ------------------------------------------------

 NO OUTPUT CONTROL FOR STRESS PERIOD   31   TIME STEP   11
 
 SOLVING FOR HEAD 
                                                   Max.-Head-Change                         Max.-Flux-Residual
  Residual-Control   Outer-Iter.   Inner-Iter.     Column Row Layer    Maximum-Head-Change  Column Row Layer    Maximum-Flux-Residual          L2-NORM 
          0                 1           2             5    6     1       0.8333219098E-02       5    6    1         0.4444564895E+00      0.1219873809E+01
          0                 2           2             5    6     1      -0.8113682786E-03       5    6    1        -0.4448817244E-01      0.1216202232E+00
          0                 3           2             4    7     1      -0.5334139014E-01       4    7    1        -0.2864535105E+01      0.7049953921E+01
          0                 4           2             4    7     1       0.5421959277E-01       4    7    1         0.2993073922E+01      0.7331511649E+01
          0                 5           2             4    7     1      -0.7382334057E-02       4    8    1        -0.4188899161E+00      0.1029971229E+01
          0                 6           2             4   13     1      -0.9737743193E-03       4   13    1        -0.6049840715E-01      0.1677507916E+00
          0                 7           2             4    7     1       0.7400301382E-02       5    6    1         0.4315692941E+00      0.1057125085E+01
          0                 8           2             4    7     1       0.1086976555E-03       5    6    1         0.6338985483E-02      0.1552717184E-01
          0                 9           1             4    7     1       0.1595507988E-05       5    6    1         0.9304525383E-04      0.2279149004E-03

    ------------------------------------------------
       NWT REQUIRED            9 OUTER ITERATIONS 
       AND A TOTAL OF         17 INNER ITERATIONS.
    ------------------------------------------------

 NO OUTPUT CONTROL FOR STRESS PERIOD   31   TIME STEP   12
 
 SOLVING FOR HEAD 
                                                   Max.-Head-Change                         Max.-Flux-Residual
  Residual-Control   Outer-Iter.   Inner-Iter.     Column Row Layer    Maximum-Head-Change  Column Row Layer    Maximum-Flux-Residual          L2-NORM 
          0                 1           2             5    6     1       0.8127163937E-02       5    6    1         0.4330903138E+00      0.1222202597E+01
          0                 2           2             5    6     1      -0.8073684940E-03       5    6    1        -0.4423344217E-01      0.1236220502E+00
          0                 3           2             4    7     1      -0.5326390424E-01       4    7    1        -0.2860372575E+01      0.7039911436E+01
          0                 4           2             4    7     1       0.5420868816E-01       4    7    1         0.2992472166E+01      0.7330048360E+01
          0                 5           2             4    7     1      -0.1496766452E-02       4    8    1        -0.8493349245E-01      0.2082410764E+00
          0                 6           2             4    7     1      -0.3427106304E-02       5    6    1        -0.1944576414E+00      0.4794740885E+00
          0                 7           2             4    7     1      -0.5495373304E-02       4    8    1        -0.3118101427E+00      0.7746162706E+00
          0                 8           2             4    7     1       0.9395492257E-02       5    6    1         0.5479190829E+00      0.1342122755E+01
          0                 9           2             4    7     1       0.1391276946E-03       5    6    1         0.8113526719E-02      0.1987381735E-01
          0                10           1             4    7     1       0.2438759140E-05       5    6    1         0.1422198147E-03      0.3483651710E-03

    ------------------------------------------------
       NWT REQUIRED           10 OUTER ITERATIONS 
       AND A TOTAL OF         19 INNER ITERATIONS.
    ------------------------------------------------

 NO OUTPUT CONTROL FOR STRESS PERIOD   31   TIME STEP   13
 
 SOLVING FOR HEAD 
                                                   Max.-Head-Change                         Max.-Flux-Residual
  Residual-Control   Outer-Iter.   Inner-Iter.     Column Row Layer    Maximum-Head-Change  Column Row Layer    Maximum-Flux-Residual          L2-NORM 
          0                 1           2             5    6     1       0.7932881140E-02       5    6    1         0.4223818911E+00      0.1225162360E+01
          0                 2           2             5    6     1      -0.7716544779E-03       5    6    1        -0.4223828480E-01      0.1219128180E+00
          0                 3           2             4    7     1      -0.5325604415E-01       4    7    1        -0.2859949199E+01      0.7039016908E+01
          0                 4           2             4    7     1       0.5422042008E-01       4    7    1         0.2993120037E+01      0.7331644827E+01
          0                 5           2             4    7     1      -0.1499284043E-02       4    8    1        -0.8507646772E-01      0.2085717482E+00
          0                 6           1             4   13     1      -0.7215016783E-04       4   13    1        -0.4485535014E-02      0.8432640790E-02

    ------------------------------------------------
       NWT REQUIRED            6 OUTER ITERATIONS 
       AND A TOTAL OF         11 INNER ITERATIONS.
    ------------------------------------------------

 NO OUTPUT CONTROL FOR STRESS PERIOD   31   TIME STEP   14
 
 SOLVING FOR HEAD 
                                                   Max.-Head-Change                         Max.-Flux-Residual
  Residual-Control   Outer-Iter.   Inner-Iter.     Column Row Layer    Maximum-Head-Change  Column Row Layer    Maximum-Flux-Residual          L2-NORM 
          0                 1           2             5    6     1       0.7765721215E-02       5    6    1         0.4131736405E+00      0.1219764484E+01
          0                 2           2             4    7     1      -0.1463603747E-01       5    6    1        -0.7899936157E+00      0.1944928980E+01
          0                 3           2             4    7     1      -0.4023094146E-01       4    7    1        -0.2160478227E+01      0.5337704824E+01
          0                 4           2             4    7     1       0.5643445447E-01       4    7    1         0.3115341070E+01      0.7631115671E+01
          0                 5           2             4    7     1      -0.2244892822E-02       4    8    1        -0.1273841766E+00      0.3120186437E+00
          0                 6           1             4    7     1       0.2770096699E-04       4    8    1         0.1615534312E-02      0.3957140647E-02

    ------------------------------------------------
       NWT REQUIRED            6 OUTER ITERATIONS 
       AND A TOTAL OF         11 INNER ITERATIONS.
    ------------------------------------------------

 NO OUTPUT CONTROL FOR STRESS PERIOD   31   TIME STEP   15
 
 SOLVING FOR HEAD 
                                                   Max.-Head-Change                         Max.-Flux-Residual
  Residual-Control   Outer-Iter.   Inner-Iter.     Column Row Layer    Maximum-Head-Change  Column Row Layer    Maximum-Flux-Residual          L2-NORM 
          0                 1           2             5    6     1       0.7591769026E-02       5    6    1         0.4036009489E+00      0.1226964214E+01
          0                 2           2             5    6     1      -0.7384734678E-03       5    6    1        -0.4036018337E-01      0.1219845789E+00
          0                 3           2             4    7     1      -0.6968860018E-01       4    7    1        -0.3742401672E+01      0.9211097706E+01
          0                 4           2             4    7     1       0.7258691000E-01       4    7    1         0.4007000140E+01      0.9815274030E+01
          0                 5           2             4    7     1      -0.2889072551E-02       4    8    1        -0.1639397031E+00      0.4015544524E+00
          0                 6           1             4    7     1       0.3564982340E-04       4    8    1         0.2079140008E-02      0.5092656862E-02

    ------------------------------------------------
       NWT REQUIRED            6 OUTER ITERATIONS 
       AND A TOTAL OF         11 INNER ITERATIONS.
    ------------------------------------------------

 NO OUTPUT CONTROL FOR STRESS PERIOD   31   TIME STEP   16
 
 SOLVING FOR HEAD 
                                                   Max.-Head-Change                         Max.-Flux-Residual
  Residual-Control   Outer-Iter.   Inner-Iter.     Column Row Layer    Maximum-Head-Change  Column Row Layer    Maximum-Flux-Residual          L2-NORM 
          0                 1           2             5    6     1       0.7427299728E-02       5    6    1         0.3945572237E+00      0.1230879749E+01
          0                 2           2             5    6     1      -0.7224750419E-03       5    6    1        -0.3945580745E-01      0.1223091258E+00
          0                 3           2             4    7     1      -0.6968864426E-01       4    7    1        -0.3742403237E+01      0.9211259626E+01
          0                 4           2             4    7     1       0.7258689935E-01       5    7    1         0.4007000189E+01      0.9815280039E+01
          0                 5           2             4    7     1      -0.2889072127E-02       4    8    1        -0.1639397915E+00      0.4015546963E+00
          0                 6           1             4    7     1       0.3564981858E-04       4    8    1         0.2079141129E-02      0.5092656692E-02

    ------------------------------------------------
       NWT REQUIRED            6 OUTER ITERATIONS 
       AND A TOTAL OF         11 INNER ITERATIONS.
    ------------------------------------------------

 NO OUTPUT CONTROL FOR STRESS PERIOD   31   TIME STEP   17
 
 SOLVING FOR HEAD 
                                                   Max.-Head-Change                         Max.-Flux-Residual
  Residual-Control   Outer-Iter.   Inner-Iter.     Column Row Layer    Maximum-Head-Change  Column Row Layer    Maximum-Flux-Residual          L2-NORM 
          0                 1           2             4    6     1       0.7315541513E-02       4   13    1         0.3908708389E+00      0.1234817381E+01
          0                 2           2             4    6     1      -0.7116038381E-03       4   13    1        -0.3869987285E-01      0.1226377112E+00
          0                 3           2             4    7     1      -0.6968871564E-01       5    8    1        -0.3742450712E+01      0.9211414095E+01
          0                 4           2             4    7     1       0.7258689445E-01       5    7    1         0.4007002112E+01      0.9815286431E+01
          0                 5           2             4    7     1      -0.2889071931E-02       4    8    1        -0.1639398874E+00      0.4015549793E+00
          0                 6           1             4    7     1       0.3564981612E-04       4    8    1         0.2079142329E-02      0.5092685352E-02

    ------------------------------------------------
       NWT REQUIRED            6 OUTER ITERATIONS 
       AND A TOTAL OF         11 INNER ITERATIONS.
    ------------------------------------------------

 NO OUTPUT CONTROL FOR STRESS PERIOD   31   TIME STEP   18
 
 SOLVING FOR HEAD 
                                                   Max.-Head-Change                         Max.-Flux-Residual
  Residual-Control   Outer-Iter.   Inner-Iter.     Column Row Layer    Maximum-Head-Change  Column Row Layer    Maximum-Flux-Residual          L2-NORM 
          0                 1           2             4    6     1       0.7221140257E-02       4   13    1         0.4044875937E+00      0.1238701357E+01
          0                 2           2             4    6     1      -0.7024211549E-03       4   13    1        -0.4004793460E-01      0.1229654405E+00
          0                 3           2             4    7     1      -0.6968880274E-01       5    8    1        -0.3742500788E+01      0.9211559509E+01
          0                 4           2             4    7     1       0.7258688591E-01       5    7    1         0.4007003760E+01      0.9815291952E+01
          0                 5           2             4    7     1      -0.2889071591E-02       4    8    1        -0.1639399700E+00      0.4015551213E+00
          0                 6           1             4    7     1       0.3564981208E-04       4    8    1         0.2079143397E-02      0.5092661984E-02

    ------------------------------------------------
       NWT REQUIRED            6 OUTER ITERATIONS 
       AND A TOTAL OF         11 INNER ITERATIONS.
    ------------------------------------------------

 NO OUTPUT CONTROL FOR STRESS PERIOD   31   TIME STEP   19
 
 SOLVING FOR HEAD 
                                                   Max.-Head-Change                         Max.-Flux-Residual
  Residual-Control   Outer-Iter.   Inner-Iter.     Column Row Layer    Maximum-Head-Change  Column Row Layer    Maximum-Flux-Residual          L2-NORM 
          0                 1           2             4   13     1       0.7248243280E-02       4   13    1         0.4168346468E+00      0.1242465784E+01
          0                 2           2             4   13     1      -0.6979667138E-03       4   13    1        -0.4127078909E-01      0.1232838642E+00
          0                 3           2             4    7     1      -0.6968890485E-01       5    8    1        -0.3742547855E+01      0.9211697176E+01
          0                 4           2             4    7     1       0.7258687372E-01       5    7    1         0.4007005131E+01      0.9815296633E+01
          0                 5           2             4    7     1      -0.2889071106E-02       4    8    1        -0.1639400394E+00      0.4015553681E+00
          0                 6           1             4    7     1       0.3564980547E-04       4    8    1         0.2079144261E-02      0.5092670786E-02

    ------------------------------------------------
       NWT REQUIRED            6 OUTER ITERATIONS 
       AND A TOTAL OF         11 INNER ITERATIONS.
    ------------------------------------------------

 NO OUTPUT CONTROL FOR STRESS PERIOD   31   TIME STEP   20
 
 SOLVING FOR HEAD 
                                                   Max.-Head-Change                         Max.-Flux-Residual
  Residual-Control   Outer-Iter.   Inner-Iter.     Column Row Layer    Maximum-Head-Change  Column Row Layer    Maximum-Flux-Residual          L2-NORM 
          0                 1           2             4   13     1       0.7443259468E-02       4   13    1         0.4280414606E+00      0.1246061107E+01
          0                 2           2             4   13     1      -0.7170904124E-03       4   13    1        -0.4240092491E-01      0.1235955880E+00
          0                 3           2             4    7     1      -0.6968902749E-01       5    8    1        -0.3742592696E+01      0.9211827195E+01
          0                 4           2             4    7     1       0.7258686695E-01       5    8    1         0.4007006928E+01      0.9815301723E+01
          0                 5           2             4    7     1      -0.2889070836E-02       4    8    1        -0.1639401167E+00      0.4015555762E+00
          0                 6           1             4    7     1       0.3564980234E-04       4    8    1         0.2079145234E-02      0.5092671953E-02

    ------------------------------------------------
       NWT REQUIRED            6 OUTER ITERATIONS 
       AND A TOTAL OF         11 INNER ITERATIONS.
    ------------------------------------------------

 NO OUTPUT CONTROL FOR STRESS PERIOD   31   TIME STEP   21
 
 SOLVING FOR HEAD 
                                                   Max.-Head-Change                         Max.-Flux-Residual
  Residual-Control   Outer-Iter.   Inner-Iter.     Column Row Layer    Maximum-Head-Change  Column Row Layer    Maximum-Flux-Residual          L2-NORM 
          0                 1           2             4   13     1       0.7620282094E-02       4   13    1         0.4382097215E+00      0.1249455604E+01
          0                 2           2             4   13     1      -0.7337738455E-03       4   13    1        -0.4338606386E-01      0.1238758388E+00
          0                 3           2             4    7     1      -0.6968917103E-01       5    8    1        -0.3742635378E+01      0.9211953948E+01
          0                 4           2             4    7     1       0.7258686564E-01       5    8    1         0.4007009916E+01      0.9815307253E+01
          0                 5           2             4    7     1      -0.2889070783E-02       4    8    1        -0.1639402018E+00      0.4015557949E+00
          0                 6           1             4    7     1       0.3564980178E-04       4    8    1         0.2079146312E-02      0.5092679418E-02

    ------------------------------------------------
       NWT REQUIRED            6 OUTER ITERATIONS 
       AND A TOTAL OF         11 INNER ITERATIONS.
    ------------------------------------------------

 NO OUTPUT CONTROL FOR STRESS PERIOD   31   TIME STEP   22
 
 SOLVING FOR HEAD 
                                                   Max.-Head-Change                         Max.-Flux-Residual
  Residual-Control   Outer-Iter.   Inner-Iter.     Column Row Layer    Maximum-Head-Change  Column Row Layer    Maximum-Flux-Residual          L2-NORM 
          0                 1           2             4   13     1       0.7781160370E-02       4   13    1         0.4474465974E+00      0.1252626125E+01
          0                 2           2             4   13     1      -0.7492507594E-03       4   13    1        -0.4429973726E-01      0.1241435120E+00
          0                 3           2             4    7     1      -0.6968932435E-01       5    8    1        -0.3742675644E+01      0.9212072936E+01
          0                 4           2             4    7     1       0.7258686042E-01       5    6    1         0.4007012703E+01      0.9815311969E+01
          0                 5           2             4    7     1      -0.2889070576E-02       4    8    1        -0.1639402741E+00      0.4015559957E+00
          0                 6           1             4    7     1       0.3564979909E-04       4    8    1         0.2079147228E-02      0.5092680845E-02

    ------------------------------------------------
       NWT REQUIRED            6 OUTER ITERATIONS 
       AND A TOTAL OF         11 INNER ITERATIONS.
    ------------------------------------------------

 NO OUTPUT CONTROL FOR STRESS PERIOD   31   TIME STEP   23
 
 SOLVING FOR HEAD 
                                                   Max.-Head-Change                         Max.-Flux-Residual
  Residual-Control   Outer-Iter.   Inner-Iter.     Column Row Layer    Maximum-Head-Change  Column Row Layer    Maximum-Flux-Residual          L2-NORM 
          0                 1           2             4   13     1       0.7927457190E-02       4   13    1         0.4558424090E+00      0.1255568850E+01
          0                 2           2             4   13     1      -0.7633311015E-03       4   13    1        -0.4513058502E-01      0.1243908265E+00
          0                 3           2             4    7     1      -0.6968948612E-01       5    8    1        -0.3742713593E+01      0.9212185663E+01
          0                 4           2             4    7     1       0.7258685123E-01       5    6    1         0.4007015232E+01      0.9815315880E+01
          0                 5           2             4    7     1      -0.2889070210E-02       4    8    1        -0.1639403335E+00      0.4015561455E+00
          0                 6           1             4    7     1       0.3564979450E-04       4    8    1         0.2079147990E-02      0.5092676124E-02

    ------------------------------------------------
       NWT REQUIRED            6 OUTER ITERATIONS 
       AND A TOTAL OF         11 INNER ITERATIONS.
    ------------------------------------------------

 NO OUTPUT CONTROL FOR STRESS PERIOD   31   TIME STEP   24
 
 SOLVING FOR HEAD 
                                                   Max.-Head-Change                         Max.-Flux-Residual
  Residual-Control   Outer-Iter.   Inner-Iter.     Column Row Layer    Maximum-Head-Change  Column Row Layer    Maximum-Flux-Residual          L2-NORM 
          0                 1           2             4   13     1       0.8060401289E-02       4   13    1         0.4634680827E+00      0.1258261391E+01
          0                 2           2             4   13     1      -0.7761045200E-03       4   13    1        -0.4588391214E-01      0.1218830057E+00
          0                 3           2             4    7     1      -0.6968966471E-01       5    8    1        -0.3743227496E+01      0.9212481327E+01
          0                 4           2             4    7     1       0.7258642104E-01       5    6    1         0.4007017862E+01      0.9793148793E+01
          0                 5           2             4    7     1      -0.2888474918E-02       4    8    1        -0.1639411100E+00      0.3764180155E+00
          0                 6           1             5    8     1      -0.2696873853E-03       5    8    1        -0.1623029366E-01      0.1688298709E-01
          0                 7           1             5    8     1      -0.4807532632E-04       5    8    1        -0.2882380430E-02      0.2883063446E-02

    ------------------------------------------------
       NWT REQUIRED            7 OUTER ITERATIONS 
       AND A TOTAL OF         12 INNER ITERATIONS.
    ------------------------------------------------

 NO OUTPUT CONTROL FOR STRESS PERIOD   31   TIME STEP   25
 
 SOLVING FOR HEAD 
                                                   Max.-Head-Change                         Max.-Flux-Residual
  Residual-Control   Outer-Iter.   Inner-Iter.     Column Row Layer    Maximum-Head-Change  Column Row Layer    Maximum-Flux-Residual          L2-NORM 
          0                 1           2             4   13     1       0.8181393227E-02       4   13    1         0.4704048522E+00      0.1264278767E+01
          0                 2           2             4   13     1      -0.7877601134E-03       4   13    1        -0.4657100080E-01      0.1267189743E+00
          0                 3           2             4    7     1      -0.6968983217E-01       5    6    1        -0.3742673678E+01      0.9211715560E+01
          0                 4           2             4    7     1       0.7258611709E-01       5    6    1         0.4007020602E+01      0.9777463568E+01
          0                 5           2             4    7     1      -0.2888222457E-02       4    8    1        -0.1639412228E+00      0.3702812592E+00
          0                 6           1             5    8     1      -0.1708187438E-03       5    8    1        -0.1030406933E-01      0.1130427631E-01
          0                 7           1             5    8     1      -0.3045065780E-04       5    8    1        -0.1826036934E-02      0.1827183692E-02

    ------------------------------------------------
       NWT REQUIRED            7 OUTER ITERATIONS 
       AND A TOTAL OF         12 INNER ITERATIONS.
    ------------------------------------------------

 NO OUTPUT CONTROL FOR STRESS PERIOD   31   TIME STEP   26
 
 SOLVING FOR HEAD 
                                                   Max.-Head-Change                         Max.-Flux-Residual
  Residual-Control   Outer-Iter.   Inner-Iter.     Column Row Layer    Maximum-Head-Change  Column Row Layer    Maximum-Flux-Residual          L2-NORM 
          0                 1           2             4   13     1       0.8291567783E-02       4   13    1         0.4767183453E+00      0.1266076944E+01
          0                 2           2             4   13     1      -0.7983971060E-03       4   13    1        -0.4719774174E-01      0.1267951766E+00
          0                 3           2             4    7     1      -0.6969002001E-01       5    6    1        -0.3742710534E+01      0.9211840023E+01
          0                 4           2             4    7     1       0.7258613168E-01       5    6    1         0.4007022944E+01      0.9778389292E+01
          0                 5           2             4    7     1      -0.2888237208E-02       4    8    1        -0.1639412576E+00      0.3705637052E+00
          0                 6           1             5    8     1      -0.1766562013E-03       5    8    1        -0.1065398005E-01      0.1162411467E-01
          0                 7           1             5    8     1      -0.3149123016E-04       5    8    1        -0.1888406037E-02      0.1889510279E-02

    ------------------------------------------------
       NWT REQUIRED            7 OUTER ITERATIONS 
       AND A TOTAL OF         12 INNER ITERATIONS.
    ------------------------------------------------

 NO OUTPUT CONTROL FOR STRESS PERIOD   31   TIME STEP   27
 
 SOLVING FOR HEAD 
                                                   Max.-Head-Change                         Max.-Flux-Residual
  Residual-Control   Outer-Iter.   Inner-Iter.     Column Row Layer    Maximum-Head-Change  Column Row Layer    Maximum-Flux-Residual          L2-NORM 
          0                 1           2             4   13     1       0.8391980915E-02       4   13    1         0.4824695160E+00      0.1267719564E+01
          0                 2           2             4   13     1      -0.8080150160E-03       4   13    1        -0.4776410916E-01      0.1268614921E+00
          0                 3           2             4    7     1      -0.6969021066E-01       5    6    1        -0.3742745313E+01      0.9211958356E+01
          0                 4           2             4    7     1       0.7258614073E-01       5    6    1         0.4007024902E+01      0.9779247736E+01
          0                 5           2             4    7     1      -0.2888250709E-02       4    8    1        -0.1639412835E+00      0.3708347244E+00
          0                 6           1             5    8     1      -0.1820696444E-03       5    8    1        -0.1097847542E-01      0.1192223823E-01
          0                 7           1             5    8     1      -0.3245621526E-04       5    8    1        -0.1946244824E-02      0.1947312364E-02

    ------------------------------------------------
       NWT REQUIRED            7 OUTER ITERATIONS 
       AND A TOTAL OF         12 INNER ITERATIONS.
    ------------------------------------------------

 NO OUTPUT CONTROL FOR STRESS PERIOD   31   TIME STEP   28
 
 SOLVING FOR HEAD 
                                                   Max.-Head-Change                         Max.-Flux-Residual
  Residual-Control   Outer-Iter.   Inner-Iter.     Column Row Layer    Maximum-Head-Change  Column Row Layer    Maximum-Flux-Residual          L2-NORM 
          0                 1           2             4   13     1       0.8483441725E-02       4   13    1         0.4877051086E+00      0.1269192982E+01
          0                 2           2             4   13     1      -0.8168207395E-03       4   13    1        -0.4828239277E-01      0.1269190835E+00
          0                 3           2             4    7     1      -0.6969041000E-01       5    6    1        -0.3742778569E+01      0.9212071064E+01
          0                 4           2             4    7     1       0.7258615345E-01       5    6    1         0.4007026992E+01      0.9780046711E+01
          0                 5           2             4    7     1      -0.2888263429E-02       4    8    1        -0.1639413209E+00      0.3710944938E+00
          0                 6           1             5    8     1      -0.1871013919E-03       5    8    1        -0.1128009200E-01      0.1220054779E-01
          0                 7           1             5    8     1      -0.3335315745E-04       5    8    1        -0.2000005465E-02      0.2001040776E-02

    ------------------------------------------------
       NWT REQUIRED            7 OUTER ITERATIONS 
       AND A TOTAL OF         12 INNER ITERATIONS.
    ------------------------------------------------

 NO OUTPUT CONTROL FOR STRESS PERIOD   31   TIME STEP   29
 
 SOLVING FOR HEAD 
                                                   Max.-Head-Change                         Max.-Flux-Residual
  Residual-Control   Outer-Iter.   Inner-Iter.     Column Row Layer    Maximum-Head-Change  Column Row Layer    Maximum-Flux-Residual          L2-NORM 
          0                 1           2             4   13     1       0.8566939005E-02       4   13    1         0.4924822838E+00      0.1270504567E+01
          0                 2           2             4   13     1      -0.8248529207E-03       4   13    1        -0.4875488556E-01      0.1269670065E+00
          0                 3           2             4    7     1      -0.6969061958E-01       5    6    1        -0.3742810489E+01      0.9212179046E+01
          0                 4           2             4    7     1       0.7258617002E-01       5    6    1         0.4007029226E+01      0.9780789983E+01
          0                 5           2             4    7     1      -0.2888275434E-02       4    8    1        -0.1639413696E+00      0.3713425757E+00
          0                 6           1             5    8     1      -0.1917756633E-03       5    8    1        -0.1156028145E-01      0.1246005405E-01
          0                 7           1             5    8     1      -0.3418637423E-04       5    8    1        -0.2049946704E-02      0.2050954135E-02

    ------------------------------------------------
       NWT REQUIRED            7 OUTER ITERATIONS 
       AND A TOTAL OF         12 INNER ITERATIONS.
    ------------------------------------------------

 NO OUTPUT CONTROL FOR STRESS PERIOD   31   TIME STEP   30



 STREAM LISTING     PERIOD     31   STEP       30

 LAYER ROW COL. STREAM  RCH.  FLOW INTO     FLOW TO   FLOW OUT OF   OVRLND.     DIRECT     STREAM       STREAM     STREAM     STREAM   STREAMBED  STREAMBED
                SEG.NO.  NO.  STRM. RCH.    AQUIFER    STRM. RCH.    RUNOFF     PRECIP       ET          HEAD       DEPTH      WIDTH   CONDCTNC.   GRADIENT

   1    1    1     1     1    3.1124E+01  2.7164E-01   3.0852E+01  0.000E+00  0.000E+00  0.000E+00  1.09431E+03  1.259E+00  1.417E+01  6.378E-02  1.420E+00
   1    2    2     1     2    3.0852E+01  4.2045E-01   3.0432E+01  0.000E+00  0.000E+00  0.000E+00  1.08931E+03  1.256E+00  1.411E+01  9.879E-02  1.419E+00
   1    3    3     1     3    3.0432E+01  3.5834E-01   3.0074E+01  0.000E+00  0.000E+00  0.000E+00  1.08367E+03  1.252E+00  1.404E+01  8.427E-02  1.417E+00
   1    3    4     1     4    3.0074E+01  3.2975E-01   2.9744E+01  0.000E+00  0.000E+00  0.000E+00  1.07866E+03  1.249E+00  1.398E+01  7.761E-02  1.416E+00
   1    4    5     2     1    2.7744E+01  3.3390E-01   2.7410E+01  0.000E+00  0.000E+00  0.000E+00  1.07321E+03  1.281E+00  1.200E+01  7.800E-02  1.427E+00
   1    5    6     2     2    2.7410E+01  2.5635E-01   2.7154E+01  0.000E+00  0.000E+00  0.000E+00  1.06778E+03  1.273E+00  1.200E+01  6.000E-02  1.424E+00
   1    6    6     2     3    2.7154E+01  2.5592E-01   2.6898E+01  0.000E+00  0.000E+00  0.000E+00  1.06306E+03  1.265E+00  1.200E+01  6.000E-02  1.422E+00
   1    7    6     2     4    2.6898E+01  2.5549E-01   2.6642E+01  0.000E+00  0.000E+00  0.000E+00  1.05833E+03  1.258E+00  1.200E+01  6.000E-02  1.419E+00
   1    8    6     2     5    2.6642E+01  2.5506E-01   2.6387E+01  0.000E+00  0.000E+00  0.000E+00  1.05361E+03  1.251E+00  1.200E+01  6.000E-02  1.417E+00
   1    3    5     3     1    2.0000E+00  2.8252E-01   1.7175E+00  0.000E+00  0.000E+00  0.000E+00  1.07555E+03  1.909E+00  9.636E+00  7.227E-02  1.955E+00
   1    3    6     3     2    1.7175E+00  2.4905E-01   1.4684E+00  0.000E+00  0.000E+00  0.000E+00  1.07264E+03  1.727E+00  8.909E+00  6.682E-02  1.864E+00
   1    3    7     3     3    1.4684E+00  1.9718E-01   1.2712E+00  0.000E+00  0.000E+00  0.000E+00  1.06987E+03  1.555E+00  8.218E+00  5.547E-02  1.777E+00
   1    4    8     3     4    1.2712E+00  2.2567E-01   1.0456E+00  0.000E+00  0.000E+00  0.000E+00  1.06682E+03  1.364E+00  7.455E+00  6.709E-02  1.682E+00
   1    5    8     3     5    1.0456E+00  1.5790E-01   8.8768E-01  0.000E+00  0.000E+00  0.000E+00  1.06362E+03  1.164E+00  6.655E+00  4.991E-02  1.582E+00
   1    6    8     3     6    8.8768E-01  5.5980E-02   8.3170E-01  0.000E+00  0.000E+00  0.000E+00  1.06158E+03  1.036E+00  6.145E+00  1.844E-02  1.518E+00
   1    5   10     4     1    1.0000E+01  9.0919E-02   9.9091E+00  0.000E+00  0.000E+00  0.000E+00  1.07836E+03  6.368E-01  1.000E+01  2.500E-02  1.212E+00
   1    5    9     4     2    9.9091E+00  1.8158E-01   9.7275E+00  0.000E+00  0.000E+00  0.000E+00  1.07154E+03  6.315E-01  1.000E+01  5.000E-02  1.211E+00
   1    6    8     4     3    9.7275E+00  1.2689E-01   9.6006E+00  0.000E+00  0.000E+00  0.000E+00  1.06381E+03  6.256E-01  1.000E+01  3.500E-02  1.209E+00
   1    6    8     5     1    1.0432E+01  2.2686E-01   1.0205E+01  0.000E+00  0.000E+00  0.000E+00  1.05868E+03  6.790E-01  1.542E+01  6.166E-02  1.226E+00
   1    7    7     5     2    1.0205E+01  2.7894E-01   9.9265E+00  0.000E+00  0.000E+00  0.000E+00  1.05417E+03  6.732E-01  1.519E+01  7.594E-02  1.224E+00
   1    8    7     5     3    9.9265E+00  1.9221E-01   9.7343E+00  0.000E+00  0.000E+00  0.000E+00  1.04992E+03  6.676E-01  1.497E+01  5.241E-02  1.223E+00
   1    8    6     5     4    9.7343E+00  1.3577E-01   9.5985E+00  0.000E+00  0.000E+00  0.000E+00  1.04691E+03  6.637E-01  1.482E+01  3.706E-02  1.221E+00
   1    9    6     6     1    1.3516E+01  2.3040E-01   1.3285E+01  0.000E+00  0.000E+00  0.000E+00  1.04357E+03  8.399E-01  1.200E+01  6.000E-02  1.280E+00
   1   10    7     6     2    1.3285E+01  2.2987E-01   1.3055E+01  0.000E+00  0.000E+00  0.000E+00  1.03901E+03  8.312E-01  1.200E+01  6.000E-02  1.277E+00
   1   11    7     6     3    1.3055E+01  2.2935E-01   1.2826E+01  0.000E+00  0.000E+00  0.000E+00  1.03446E+03  8.225E-01  1.200E+01  6.000E-02  1.274E+00
   1   12    7     6     4    1.2826E+01  2.2883E-01   1.2597E+01  0.000E+00  0.000E+00  0.000E+00  1.02990E+03  8.138E-01  1.200E+01  6.000E-02  1.271E+00
   1   13    7     6     5    1.2597E+01  4.0277E-03   1.2593E+01  0.000E+00  0.000E+00  0.000E+00  1.02672E+03  8.093E-01  1.200E+01  2.400E-02  5.594E-02
   1   14    9     7     1    1.5000E+02  1.3898E+00   1.4861E+02  0.000E+00  0.000E+00  0.000E+00  1.03987E+03  2.288E+00  5.529E+01  5.593E-01  8.283E-01
   1   13    8     7     2    1.4861E+02  2.0053E+00   1.4660E+02  0.000E+00  0.000E+00  0.000E+00  1.03478E+03  2.279E+00  5.525E+01  6.147E-01  1.087E+00
   1   13    7     7     3    1.4660E+02  1.7517E+00   1.4485E+02  0.000E+00  0.000E+00  0.000E+00  1.02969E+03  2.269E+00  5.521E+01  5.584E-01  1.046E+00
   1   13    6     8     1    1.5745E+02  1.1204E+00   1.5633E+02  0.000E+00  0.000E+00  0.000E+00  1.02474E+03  2.865E+00  4.154E+01  4.233E-01  8.823E-01
   1   13    5     8     2    1.5633E+02  3.6599E-01   1.5596E+02  0.000E+00  0.000E+00  0.000E+00  1.01848E+03  2.860E+00  4.146E+01  4.225E-01  2.887E-01
   1   13    4     8     3    1.5596E+02 -1.7967E+00   1.5776E+02  0.000E+00  0.000E+00  0.000E+00  1.01224E+03  2.864E+00  4.153E+01  4.233E+00 -1.415E-01
   1   13    3     8     4    1.5776E+02 -3.3520E+00   1.6111E+02  0.000E+00  0.000E+00  0.000E+00  1.00601E+03  2.882E+00  4.179E+01  4.258E+00 -2.624E-01
   1   13    2     8     5    1.6111E+02 -2.5551E+00   1.6366E+02  0.000E+00  0.000E+00  0.000E+00  9.99777E+02  2.902E+00  4.208E+01  4.288E+00 -1.986E-01
   1   13    1     8     6    1.6366E+02 -2.0220E+00   1.6569E+02  0.000E+00  0.000E+00  0.000E+00  9.94792E+02  2.917E+00  4.230E+01  2.586E+00 -2.606E-01
   1    8    6     9     1    2.2470E+01  0.0000E+00   2.2470E+01  0.000E+00  0.000E+00  0.000E+00  1.08243E+03  3.683E+00  4.000E+00  0.000E+00  2.228E+00
   1    8    5     9     2    2.2470E+01  0.0000E+00   2.2470E+01  0.000E+00  0.000E+00  0.000E+00  1.08193E+03  3.683E+00  4.000E+00  0.000E+00  2.228E+00





UNSATURATED ZONE PACKAGE VOLUMETRIC BUDGET FOR  TIME STEP    30 STRESS PERIOD   31
  ------------------------------------------------------------------------------



     CUMULATIVE VOLUMES      L**3       RATES FOR THIS TIME STEP      L**3/T
     ------------------                 ------------------------

           IN:                                      IN:
           ---                                      ---
        INFILTRATION =  1206690295.9058          INFILTRATION =          23.3179

          OUT:                                     OUT:
          ----                                     ----
              UZF ET =   954798761.2052                UZF ET =          23.3175
        UZF RECHARGE =      729522.8547          UZF RECHARGE =           0.0862

            IN - OUT =   251162011.8458              IN - OUT =      -8.5731E-02

          STORAGE:                                 STORAGE:
          --------                                 --------
      STORAGE CHANGE =   251166583.2145        STORAGE CHANGE =      -8.5731E-02

 PERCENT DISCREPANCY IS DIFFERENCE BETWEEN IN-OUT MINUS CHANGE IN STORAGE
 DIVIDED BY THE AVERAGE OF IN AND OUT TIMES 100

 PERCENT DISCREPANCY =          -0.00     PERCENT DISCREPANCY =           0.00






1
  VOLUMETRIC BUDGET FOR AGRICULTURAL FIELDS AT  END OF TIME STEP   30, STRESS PERIOD  31
  ------------------------------------------------------------------------------

     CUMULATIVE VOLUMES      L**3       RATES FOR THIS TIME STEP      L**3/T
     ------------------                 ------------------------

           IN:                                      IN:
           ---                                      ---
               AG WELLS  =   703296576.0000                 AG WELLS  =           0.0000
      DIVERSION SEGMENTS =   436624448.0000        DIVERSION SEGMENTS =          22.4700
       IRRIGATION PONDS  =           0.0000         IRRIGATION PONDS  =           0.0000
           GW IRRIGATION =           0.0000             GW IRRIGATION =           0.0000
           SW IRRIGATION =           0.0000             SW IRRIGATION =           0.0000
        SYSTEM LOSSES GW =           0.0000          SYSTEM LOSSES GW =           0.0000
        SYSTEM LOSSES SW =           0.0000          SYSTEM LOSSES SW =           0.0000

                TOTAL IN =  1139921024.0000                  TOTAL IN =          22.4700

          OUT:                                     OUT:
          ----                                     ----
               AG WELLS  =           0.0000                 AG WELLS  =           0.0000
      DIVERSION SEGMENTS =           0.0000        DIVERSION SEGMENTS =           0.0000
       IRRIGATION PONDS  =           0.0000         IRRIGATION PONDS  =           0.0000
           GW IRRIGATION =   703296576.0000             GW IRRIGATION =           0.0000
           SW IRRIGATION =   436633312.0000             SW IRRIGATION =          22.4704
        SYSTEM LOSSES GW =           0.0000          SYSTEM LOSSES GW =           0.0000
        SYSTEM LOSSES SW =           0.0000          SYSTEM LOSSES SW =           0.0000

               TOTAL OUT =  1139929856.0000                 TOTAL OUT =          22.4704

                IN - OUT =       -8832.0000                  IN - OUT =      -4.4823E-04

     PERCENT DISCREPANCY =          -0.00         PERCENT DISCREPANCY =          -0.00



1
  VOLUMETRIC BUDGET FOR ENTIRE MODEL AT END OF TIME STEP   30, STRESS PERIOD  31
  ------------------------------------------------------------------------------

     CUMULATIVE VOLUMES      L**3       RATES FOR THIS TIME STEP      L**3/T
     ------------------                 ------------------------

           IN:                                      IN:
           ---                                      ---
             STORAGE     =  1129075840.0000               STORAGE     =           1.8877
       CONSTANT HEAD     =           0.0000         CONSTANT HEAD     =           0.0000
     HEAD DEP BOUNDS     =    22776024.0000       HEAD DEP BOUNDS     =           0.2894
      STREAM LEAKAGE     =   940937152.0000        STREAM LEAKAGE     =          12.6941
        UZF RECHARGE     =      729522.8125          UZF RECHARGE     =       8.6157E-02
               GW ET     =           0.0000                 GW ET     =           0.0000
     SURFACE LEAKAGE     =           0.0000       SURFACE LEAKAGE     =           0.0000
           AG WELLS      =           0.0000             AG WELLS      =           0.0000

                TOTAL IN =  2093518464.0000                  TOTAL IN =          14.9574

          OUT:                                     OUT:
          ----                                     ----
             STORAGE     =   581728448.0000               STORAGE     =           4.9443
       CONSTANT HEAD     =           0.0000         CONSTANT HEAD     =           0.0000
     HEAD DEP BOUNDS     =    22742924.0000       HEAD DEP BOUNDS     =           0.2878
      STREAM LEAKAGE     =   785759808.0000        STREAM LEAKAGE     =           9.7257
        UZF RECHARGE     =           0.0000          UZF RECHARGE     =           0.0000
               GW ET     =           0.0000                 GW ET     =           0.0000
     SURFACE LEAKAGE     =           0.0000       SURFACE LEAKAGE     =           0.0000
           AG WELLS      =   703296576.0000             AG WELLS      =           0.0000

               TOTAL OUT =  2093527808.0000                 TOTAL OUT =          14.9577

                IN - OUT =       -9344.0000                  IN - OUT =      -3.6144E-04

     PERCENT DISCREPANCY =          -0.00         PERCENT DISCREPANCY =          -0.00






         TIME SUMMARY AT END OF TIME STEP   30 IN STRESS PERIOD   31
                    SECONDS     MINUTES      HOURS       DAYS        YEARS
                    -----------------------------------------------------------
   TIME STEP LENGTH  87667.      1461.1      24.352      1.0147     2.77799E-03
 STRESS PERIOD TIME 2.63000E+06  43833.      730.56      30.440     8.33397E-02
         TOTAL TIME 7.89864E+07 1.31644E+06  21941.      914.20      2.5029    
1
1
                            STRESS PERIOD NO.   32, LENGTH =   2630000.    
                            -----------------------------------------------

                              NUMBER OF TIME STEPS =    30

                               MULTIPLIER FOR DELT =     1.000

                            INITIAL TIME STEP SIZE =   87666.66    

 REUSING NON-PARAMETER GHB CELLS FROM LAST STRESS PERIOD

      2 GHB CELLS

 REUSING STREAM SEGMENT DATA FROM LAST STRESS PERIOD



            AREAL INFILTRATION RATE
 READING ON UNIT   19 WITH FORMAT: (FREE)              

            1           2           3           4           5           6           7           8           9          10
 ........................................................................................................................
   1   1.0000E-10  2.0000E-10   0.000       0.000       0.000       0.000       0.000       0.000       0.000       0.000    
   2   2.0000E-10  1.0000E-10  2.0000E-10   0.000       0.000      8.0000E-10  8.0000E-10  5.0000E-10   0.000       0.000    
   3    0.000      5.0000E-10  1.0000E-10  1.0000E-10  8.0000E-10  8.0000E-10  5.0000E-10  5.0000E-10   0.000       0.000    
   4   8.0000E-10  5.0000E-10  1.0000E-10  1.0000E-10  1.0000E-10  1.0000E-10  1.0000E-10  1.0000E-10  2.0000E-10   0.000    
   5   8.0000E-10  5.0000E-10  1.0000E-10  1.0000E-10  1.0000E-10  1.0000E-10  1.0000E-10  1.0000E-10  1.0000E-10  1.0000E-10
   6   8.0000E-10  5.0000E-10  5.0000E-10  2.0000E-10  2.0000E-10  1.0000E-10  1.0000E-10  1.0000E-10  1.0000E-10  5.0000E-10
   7   8.0000E-10  5.0000E-10  5.0000E-10  2.0000E-10  2.0000E-10  1.0000E-10  1.0000E-10  2.0000E-10  2.0000E-10   0.000    
   8    0.000      5.0000E-10  5.0000E-10  2.0000E-10  2.0000E-10  1.0000E-10  1.0000E-10  2.0000E-10  5.0000E-10   0.000    
   9    0.000      5.0000E-10  5.0000E-10  2.0000E-10  2.0000E-10  1.0000E-10  1.0000E-10  2.0000E-10  5.0000E-10   0.000    
  10    0.000      5.0000E-10  5.0000E-10  2.0000E-10  2.0000E-10  1.0000E-10  1.0000E-10  2.0000E-10  5.0000E-10  8.0000E-10
  11    0.000      1.0000E-10  1.0000E-10  1.0000E-10  1.0000E-10  1.0000E-10  1.0000E-10  2.0000E-10  5.0000E-10   0.000    
  12   1.0000E-10  1.0000E-10  1.0000E-10  1.0000E-10  1.0000E-10  1.0000E-10  1.0000E-10  1.0000E-10  2.0000E-10   0.000    
  13   1.0000E-10  1.0000E-10  2.0000E-10  2.0000E-10  2.0000E-10  2.0000E-10  2.0000E-10  1.0000E-10  1.0000E-10   0.000    
  14    0.000      2.0000E-10  5.0000E-10  5.0000E-10  5.0000E-10  5.0000E-10  5.0000E-10  2.0000E-10  1.0000E-10   0.000    
  15    0.000       0.000      8.0000E-10  8.0000E-10  8.0000E-10  8.0000E-10   0.000       0.000       0.000       0.000    

                  ET RATE =  4.000000E-07

 USING ET EXTINCTION DEPTH FROM PREVIOUS STRESS PERIOD. CURRENT PERIOD IS:      32

 USING EXTINCTION WATER CONTENT FROM PREVIOUS STRESS PERIOD. CURRENT PERIOD IS:      32

 USING AIR ENTRY PRESSURE FROM PREVIOUS STRESS PERIOD. CURRENT PERIOD IS:      32

 USING ROOT PRESSURE HEAD FROM PREVIOUS STRESS PERIOD. CURRENT PERIOD IS:      32

 USING ROOT ACTIVITY FROM PREVIOUS STRESS PERIOD. CURRENT PERIOD IS:      32

 PROCESSING AG STRESS PERIOD DATA

 READING AG STRESS PERIOD DATA

 READING IRRIGATION SEGMENT

 READING IRRIGATION WELL

 READING SUPPLEMENTAL WELL

 NO IRRPOND OR REUSING IRRPOND DATA FROM LAST STRESS PERIOD

 END PROCESSING AG STRESS PERIOD DATA OPTIONS
 
 SOLVING FOR HEAD 
                                                   Max.-Head-Change                         Max.-Flux-Residual
  Residual-Control   Outer-Iter.   Inner-Iter.     Column Row Layer    Maximum-Head-Change  Column Row Layer    Maximum-Flux-Residual          L2-NORM 
          0                 1           2             4    7     1       0.6772489875E-02       4    7    1         0.3536497105E+00      0.1022041045E+01
          0                 2           2             4    7     1      -0.2289671106E+00       4    7    1        -0.1229606047E+02      0.3008665100E+02
          0                 3           2             4    7     1       0.1554373514E-01       5    7    1         0.8605589838E+00      0.2074549364E+01
          0                 4           2             4    7     1      -0.6185012941E-03       5    7    1        -0.3519703762E-01      0.8484976257E-01
          0                 5           1             4    7     1       0.7626386719E-05       5    7    1         0.4460547484E-03      0.1075307253E-02

    ------------------------------------------------
       NWT REQUIRED            5 OUTER ITERATIONS 
       AND A TOTAL OF          9 INNER ITERATIONS.
    ------------------------------------------------

 NO OUTPUT CONTROL FOR STRESS PERIOD   32   TIME STEP    1
 
 SOLVING FOR HEAD 
                                                   Max.-Head-Change                         Max.-Flux-Residual
  Residual-Control   Outer-Iter.   Inner-Iter.     Column Row Layer    Maximum-Head-Change  Column Row Layer    Maximum-Flux-Residual          L2-NORM 
          0                 1           2             5    6     1       0.1201497757E-01       5    6    1         0.6469657084E+00      0.1582034267E+01
          0                 2           2             4    7     1      -0.2809577976E-01       5    6    1        -0.1530644074E+01      0.3749687686E+01
          0                 3           2             4    7     1      -0.4502438944E-01       4    7    1        -0.2416595245E+01      0.5943966874E+01
          0                 4           2             4    7     1       0.4536426612E-01       4    7    1         0.2502868660E+01      0.6130667432E+01
          0                 5           2             4    7     1      -0.1924731574E-01       4    7    1        -0.1091525613E+01      0.2673634512E+01
          0                 6           2             4    7     1       0.2375014990E-03       4    7    1         0.1384313005E-01      0.3391277608E-01
          0                 7           1             4    7     1       0.3490821825E-05       5    8    1         0.2038074308E-03      0.4997940521E-03

    ------------------------------------------------
       NWT REQUIRED            7 OUTER ITERATIONS 
       AND A TOTAL OF         13 INNER ITERATIONS.
    ------------------------------------------------

 NO OUTPUT CONTROL FOR STRESS PERIOD   32   TIME STEP    2
 
 SOLVING FOR HEAD 
                                                   Max.-Head-Change                         Max.-Flux-Residual
  Residual-Control   Outer-Iter.   Inner-Iter.     Column Row Layer    Maximum-Head-Change  Column Row Layer    Maximum-Flux-Residual          L2-NORM 
          0                 1           2             5    6     1       0.1295593399E-01       5    6    1         0.6984533017E+00      0.1675751117E+01
          0                 2           2             4    7     1      -0.9505649884E-01       5    6    1        -0.5128063925E+01      0.1257511102E+02
          0                 3           2             4    7     1      -0.4829743047E+00       4    8    1        -0.2592250675E+02      0.6349390614E+02
          0                 4           2             4    7     1       0.3289207143E-01       5    8    1         0.1823836606E+01      0.4448388648E+01
          0                 5           2             4    7     1      -0.1309122964E-02       5    8    1        -0.7458278825E-01      0.1819778940E+00
          0                 6           1             4    7     1       0.1615402754E-04       5    8    1         0.9438406364E-03      0.2316660990E-02

    ------------------------------------------------
       NWT REQUIRED            6 OUTER ITERATIONS 
       AND A TOTAL OF         11 INNER ITERATIONS.
    ------------------------------------------------

 NO OUTPUT CONTROL FOR STRESS PERIOD   32   TIME STEP    3
 
 SOLVING FOR HEAD 
                                                   Max.-Head-Change                         Max.-Flux-Residual
  Residual-Control   Outer-Iter.   Inner-Iter.     Column Row Layer    Maximum-Head-Change  Column Row Layer    Maximum-Flux-Residual          L2-NORM 
          0                 1           2             5    8     1       0.2853300283E-01       5    8    1         0.1558903134E+01      0.3314643945E+01
          0                 2           2             5    8     1      -0.4341344873E-02       5    8    1        -0.2421018905E+00      0.5263141441E+00
          0                 3           2             4    7     1      -0.6915431684E-01       4    7    1        -0.3711756558E+01      0.9128837936E+01
          0                 4           2             4    7     1       0.7019457095E-01       4    7    1         0.3872783181E+01      0.9485899599E+01
          0                 5           2             4    7     1      -0.4144480206E-02       5    8    1        -0.2350648534E+00      0.5757737444E+00
          0                 6           2             4    7     1      -0.1584431379E-01       4    7    1        -0.8985190397E+00      0.2200910916E+01
          0                 7           2             4    7     1      -0.4042294239E-02       4    7    1        -0.2292322753E+00      0.5614894702E+00
          0                 8           1             4    7     1       0.4995880368E-04       5    8    1         0.2914910785E-02      0.7141401081E-02

    ------------------------------------------------
       NWT REQUIRED            8 OUTER ITERATIONS 
       AND A TOTAL OF         15 INNER ITERATIONS.
    ------------------------------------------------

 NO OUTPUT CONTROL FOR STRESS PERIOD   32   TIME STEP    4
 
 SOLVING FOR HEAD 
                                                   Max.-Head-Change                         Max.-Flux-Residual
  Residual-Control   Outer-Iter.   Inner-Iter.     Column Row Layer    Maximum-Head-Change  Column Row Layer    Maximum-Flux-Residual          L2-NORM 
          0                 1           2             5    8     1       0.2793002231E-01       5    8    1         0.1524698806E+01      0.3273276723E+01
          0                 2           2             4    7     1      -0.9256821572E-01       5    8    1        -0.5057954831E+01      0.1234073295E+02
          0                 3           2             4    7     1      -0.5421925833E+00       4    7    1        -0.2910036491E+02      0.7127187769E+02
          0                 4           2             4    7     1       0.3692491391E-01       4    7    1         0.2037178944E+01      0.4989083717E+01
          0                 5           2             4    7     1      -0.1469633301E-02       4    7    1        -0.8333786084E-01      0.2040993033E+00
          0                 6           1             4    7     1       0.1813465614E-04       4    7    1         0.1056718337E-02      0.2599842619E-02

    ------------------------------------------------
       NWT REQUIRED            6 OUTER ITERATIONS 
       AND A TOTAL OF         11 INNER ITERATIONS.
    ------------------------------------------------

 NO OUTPUT CONTROL FOR STRESS PERIOD   32   TIME STEP    5
 
 SOLVING FOR HEAD 
                                                   Max.-Head-Change                         Max.-Flux-Residual
  Residual-Control   Outer-Iter.   Inner-Iter.     Column Row Layer    Maximum-Head-Change  Column Row Layer    Maximum-Flux-Residual          L2-NORM 
          0                 1           2             5    8     1       0.4509847976E-01       5    8    1         0.2471077373E+01      0.5200969203E+01
          0                 2           2             5    8     1      -0.6176474780E-02       5    8    1        -0.3456384542E+00      0.7350250485E+00
          0                 3           2             4    7     1      -0.6545492757E-01       4    7    1        -0.3513273847E+01      0.8633987351E+01
          0                 4           2             4    7     1       0.6680279462E-01       4    7    1         0.3685634236E+01      0.9026839543E+01
          0                 5           2             4    7     1      -0.1616813960E-01       5    8    1        -0.9169020620E+00      0.2245928821E+01
          0                 6           2             4    7     1      -0.1454166369E-02       4    7    1        -0.8246324518E-01      0.2019826970E+00
          0                 7           1             4    7     1       0.1795794900E-04       5    8    1         0.1047890055E-02      0.2567492693E-02

    ------------------------------------------------
       NWT REQUIRED            7 OUTER ITERATIONS 
       AND A TOTAL OF         13 INNER ITERATIONS.
    ------------------------------------------------

 NO OUTPUT CONTROL FOR STRESS PERIOD   32   TIME STEP    6
 
 SOLVING FOR HEAD 
                                                   Max.-Head-Change                         Max.-Flux-Residual
  Residual-Control   Outer-Iter.   Inner-Iter.     Column Row Layer    Maximum-Head-Change  Column Row Layer    Maximum-Flux-Residual          L2-NORM 
          0                 1           2             5    8     1       0.4337848628E-01       5    8    1         0.2374573632E+01      0.5045528851E+01
          0                 2           2             5    6     1      -0.9323363148E-01       5    8    1        -0.5134193409E+01      0.1246190383E+02
          0                 3           2             4    7     1      -0.5723788244E+00       4    7    1        -0.3072036173E+02      0.7523384465E+02
          0                 4           2             4    7     1       0.3898051665E-01       4    7    1         0.2150644580E+01      0.5267549275E+01
          0                 5           2             4    7     1      -0.1551447844E-02       5    8    1        -0.8798544500E-01      0.2155317547E+00
          0                 6           1             4    7     1       0.1914421309E-04       5    8    1         0.1116079591E-02      0.2734037267E-02

    ------------------------------------------------
       NWT REQUIRED            6 OUTER ITERATIONS 
       AND A TOTAL OF         11 INNER ITERATIONS.
    ------------------------------------------------

 NO OUTPUT CONTROL FOR STRESS PERIOD   32   TIME STEP    7
 
 SOLVING FOR HEAD 
                                                   Max.-Head-Change                         Max.-Flux-Residual
  Residual-Control   Outer-Iter.   Inner-Iter.     Column Row Layer    Maximum-Head-Change  Column Row Layer    Maximum-Flux-Residual          L2-NORM 
          0                 1           2             5    8     1       0.6057150783E-01       5    8    1         0.3321721865E+01      0.7030716532E+01
          0                 2           2             5    8     1      -0.7562405471E-02       5    8    1        -0.4241410633E+00      0.8983889187E+00
          0                 3           2             4    7     1      -0.6406487229E-01       4    7    1        -0.3438722584E+01      0.8444484666E+01
          0                 4           2             4    7     1       0.6530964687E-01       4    7    1         0.3603232284E+01      0.8824575313E+01
          0                 5           2             4    7     1      -0.9604119099E-03       4    7    1        -0.5446875297E-01      0.1352621767E+00
          0                 6           1             4    7     1       0.1993405662E-04       4    7    1         0.1161914271E-02      0.3112971189E-02

    ------------------------------------------------
       NWT REQUIRED            6 OUTER ITERATIONS 
       AND A TOTAL OF         11 INNER ITERATIONS.
    ------------------------------------------------

 NO OUTPUT CONTROL FOR STRESS PERIOD   32   TIME STEP    8
 
 SOLVING FOR HEAD 
                                                   Max.-Head-Change                         Max.-Flux-Residual
  Residual-Control   Outer-Iter.   Inner-Iter.     Column Row Layer    Maximum-Head-Change  Column Row Layer    Maximum-Flux-Residual          L2-NORM 
          0                 1           2             5    8     1       0.5750262627E-01       5    8    1         0.3150245130E+01      0.6729466678E+01
          0                 2           2             5    6     1      -0.1161146555E+00       5    8    1        -0.6396835048E+01      0.1549067088E+02
          0                 3           2             4    7     1      -0.2319664273E+00       4    7    1        -0.1245005325E+02      0.3047567558E+02
          0                 4           2             4    7     1       0.1579800280E-01       4    7    1         0.8716230539E+00      0.2133839152E+01
          0                 5           2             4    7     1      -0.6287678318E-03       4    7    1        -0.3565853499E-01      0.8731011722E-01
          0                 6           1             4    7     1       0.7758733323E-05       4    7    1         0.4522457657E-03      0.1107545584E-02

    ------------------------------------------------
       NWT REQUIRED            6 OUTER ITERATIONS 
       AND A TOTAL OF         11 INNER ITERATIONS.
    ------------------------------------------------

 NO OUTPUT CONTROL FOR STRESS PERIOD   32   TIME STEP    9
 
 SOLVING FOR HEAD 
                                                   Max.-Head-Change                         Max.-Flux-Residual
  Residual-Control   Outer-Iter.   Inner-Iter.     Column Row Layer    Maximum-Head-Change  Column Row Layer    Maximum-Flux-Residual          L2-NORM 
          0                 1           2             5    8     1       0.6480193234E-01       5    8    1         0.3551068442E+01      0.7609403504E+01
          0                 2           2             5    8     1      -0.2204930531E-01       5    8    1        -0.1222019147E+01      0.2797266412E+01
          0                 3           2             4    7     1      -0.5546691560E-01       4    7    1        -0.2977255950E+01      0.7305291781E+01
          0                 4           2             4    7     1       0.5618936507E-01       4    7    1         0.3100037275E+01      0.7592087238E+01
          0                 5           2             4    7     1      -0.1972476493E-01       4    7    1        -0.1118568580E+01      0.2739906879E+01
          0                 6           2             4    7     1       0.2433931362E-03       5    8    1         0.1419914549E-01      0.3478524877E-01
          0                 7           1             4    7     1       0.3577418031E-05       5    8    1         0.2086984096E-03      0.5112722541E-03

    ------------------------------------------------
       NWT REQUIRED            7 OUTER ITERATIONS 
       AND A TOTAL OF         13 INNER ITERATIONS.
    ------------------------------------------------

 NO OUTPUT CONTROL FOR STRESS PERIOD   32   TIME STEP   10
 
 SOLVING FOR HEAD 
                                                   Max.-Head-Change                         Max.-Flux-Residual
  Residual-Control   Outer-Iter.   Inner-Iter.     Column Row Layer    Maximum-Head-Change  Column Row Layer    Maximum-Flux-Residual          L2-NORM 
          0                 1           2             5    8     1       0.6259582485E-01       5    8    1         0.3427216765E+01      0.7410265532E+01
          0                 2           2             5    6     1      -0.9648833659E-01       5    8    1        -0.5318644704E+01      0.1285220684E+02
          0                 3           2             4    7     1      -0.5265730890E+00       4    7    1        -0.2826159034E+02      0.6920470105E+02
          0                 4           2             4    7     1       0.3586122210E-01       4    7    1         0.1978525536E+01      0.4845443701E+01
          0                 5           2             4    7     1      -0.1427297421E-02       4    7    1        -0.8094270040E-01      0.1982606767E+00
          0                 6           1             4    7     1       0.1761224962E-04       4    7    1         0.1026569578E-02      0.2514959400E-02

    ------------------------------------------------
       NWT REQUIRED            6 OUTER ITERATIONS 
       AND A TOTAL OF         11 INNER ITERATIONS.
    ------------------------------------------------

 NO OUTPUT CONTROL FOR STRESS PERIOD   32   TIME STEP   11
 
 SOLVING FOR HEAD 
                                                   Max.-Head-Change                         Max.-Flux-Residual
  Residual-Control   Outer-Iter.   Inner-Iter.     Column Row Layer    Maximum-Head-Change  Column Row Layer    Maximum-Flux-Residual          L2-NORM 
          0                 1           2             5    8     1       0.7754295670E-01       5    8    1         0.4249965438E+01      0.9161776168E+01
          0                 2           2             5    8     1      -0.9098290366E-02       5    8    1        -0.5106345131E+00      0.1096149984E+01
          0                 3           2             4    7     1      -0.6664740871E-01       4    7    1        -0.3577345940E+01      0.8780530013E+01
          0                 4           2             4    7     1       0.6822889206E-01       4    7    1         0.3764239283E+01      0.9218619210E+01
          0                 5           2             4    7     1      -0.1687988847E-01       4    7    1        -0.9572321962E+00      0.2344713769E+01
          0                 6           2             4    7     1      -0.1545844601E-02       4    7    1        -0.8766015633E-01      0.2147123224E+00
          0                 7           1             4    7     1       0.1909011108E-04       5    8    1         0.1113931472E-02      0.2729286178E-02

    ------------------------------------------------
       NWT REQUIRED            7 OUTER ITERATIONS 
       AND A TOTAL OF         13 INNER ITERATIONS.
    ------------------------------------------------

 NO OUTPUT CONTROL FOR STRESS PERIOD   32   TIME STEP   12
 
 SOLVING FOR HEAD 
                                                   Max.-Head-Change                         Max.-Flux-Residual
  Residual-Control   Outer-Iter.   Inner-Iter.     Column Row Layer    Maximum-Head-Change  Column Row Layer    Maximum-Flux-Residual          L2-NORM 
          0                 1           2             5    8     1       0.7416805323E-01       5    8    1         0.4061249386E+01      0.8838068873E+01
          0                 2           2             5    8     1      -0.9610247381E-01       5    8    1        -0.5299981339E+01      0.1277079131E+02
          0                 3           2             4    7     1      -0.5752970437E+00       4    7    1        -0.3087638812E+02      0.7560578865E+02
          0                 4           2             4    7     1       0.3917924179E-01       4    7    1         0.2161567359E+01      0.5293593444E+01
          0                 5           2             4    7     1      -0.1559357287E-02       4    7    1        -0.8843110866E-01      0.2165977779E+00
          0                 6           1             4    7     1       0.1924181174E-04       4    7    1         0.1121542606E-02      0.2747568843E-02

    ------------------------------------------------
       NWT REQUIRED            6 OUTER ITERATIONS 
       AND A TOTAL OF         11 INNER ITERATIONS.
    ------------------------------------------------

 NO OUTPUT CONTROL FOR STRESS PERIOD   32   TIME STEP   13
 
 SOLVING FOR HEAD 
                                                   Max.-Head-Change                         Max.-Flux-Residual
  Residual-Control   Outer-Iter.   Inner-Iter.     Column Row Layer    Maximum-Head-Change  Column Row Layer    Maximum-Flux-Residual          L2-NORM 
          0                 1           2             5    8     1       0.8988860172E-01       5    8    1         0.4926358291E+01      0.1068826371E+02
          0                 2           2             5    8     1      -0.1046488189E-01       5    8    1        -0.5873957880E+00      0.1267286520E+01
          0                 3           2             4    7     1      -0.6371293202E-01       4    7    1        -0.3419873590E+01      0.8389245249E+01
          0                 4           2             4    7     1       0.6516816787E-01       4    7    1         0.3595347312E+01      0.8804614982E+01
          0                 5           2             4    7     1      -0.9554746793E-03       4    7    1        -0.5418783523E-01      0.1343998228E+00
          0                 6           2             4    7     1      -0.2222853668E-03       5    6    1        -0.1260536416E-01      0.3135141709E-01
          0                 7           2             4    7     1      -0.1205579160E-01       4    7    1        -0.6836413118E+00      0.1674572167E+01
          0                 8           2             4    7     1      -0.1604298114E-02       4    7    1        -0.9097246953E-01      0.2228270828E+00
          0                 9           2             4    7     1      -0.1740754615E-02       4    7    1        -0.9870997197E-01      0.2417875774E+00
          0                10           1             4    7     1       0.2154792160E-04       5    8    1         0.1257115376E-02      0.3079763246E-02

    ------------------------------------------------
       NWT REQUIRED           10 OUTER ITERATIONS 
       AND A TOTAL OF         19 INNER ITERATIONS.
    ------------------------------------------------

 NO OUTPUT CONTROL FOR STRESS PERIOD   32   TIME STEP   14
 
 SOLVING FOR HEAD 
                                                   Max.-Head-Change                         Max.-Flux-Residual
  Residual-Control   Outer-Iter.   Inner-Iter.     Column Row Layer    Maximum-Head-Change  Column Row Layer    Maximum-Flux-Residual          L2-NORM 
          0                 1           2             5    8     1       0.8584105126E-01       5    8    1         0.4700203361E+01      0.1029586089E+02
          0                 2           2             5    8     1      -0.9728332900E-01       5    8    1        -0.5366361117E+01      0.1289964196E+02
          0                 3           2             4    7     1      -0.5694220246E+00       4    7    1        -0.3056081963E+02      0.7482914292E+02
          0                 4           2             4    7     1       0.3877922338E-01       4    7    1         0.2139480469E+01      0.5239229137E+01
          0                 5           2             4    7     1      -0.1543436232E-02       4    7    1        -0.8752752543E-01      0.2143734884E+00
          0                 6           1             4    7     1       0.1904535292E-04       4    7    1         0.1110082911E-02      0.2724412820E-02

    ------------------------------------------------
       NWT REQUIRED            6 OUTER ITERATIONS 
       AND A TOTAL OF         11 INNER ITERATIONS.
    ------------------------------------------------

 NO OUTPUT CONTROL FOR STRESS PERIOD   32   TIME STEP   15
 
 SOLVING FOR HEAD 
                                                   Max.-Head-Change                         Max.-Flux-Residual
  Residual-Control   Outer-Iter.   Inner-Iter.     Column Row Layer    Maximum-Head-Change  Column Row Layer    Maximum-Flux-Residual          L2-NORM 
          0                 1           2             5    8     1       0.1008122034E+00       5    8    1         0.5523680320E+01      0.1206788889E+02
          0                 2           2             5    8     1      -0.1142832563E-01       5    8    1        -0.6416698429E+00      0.1392976688E+01
          0                 3           2             4    7     1      -0.6419174389E-01       4    7    1        -0.3445577967E+01      0.8449281747E+01
          0                 4           2             4    7     1       0.6543352070E-01       4    7    1         0.3609952882E+01      0.8840163858E+01
          0                 5           2             4    7     1      -0.1580350486E-01       4    7    1        -0.8961747364E+00      0.2195225867E+01
          0                 6           1             4    7     1      -0.9676968220E-04       4    7    1        -0.5486590302E-02      0.1345962596E-01

    ------------------------------------------------
       NWT REQUIRED            6 OUTER ITERATIONS 
       AND A TOTAL OF         11 INNER ITERATIONS.
    ------------------------------------------------

 NO OUTPUT CONTROL FOR STRESS PERIOD   32   TIME STEP   16
 
 SOLVING FOR HEAD 
                                                   Max.-Head-Change                         Max.-Flux-Residual
  Residual-Control   Outer-Iter.   Inner-Iter.     Column Row Layer    Maximum-Head-Change  Column Row Layer    Maximum-Flux-Residual          L2-NORM 
          0                 1           2             5    8     1       0.9621512025E-01       5    8    1         0.5266973176E+01      0.1161935451E+02
          0                 2           2             5    8     1      -0.9811985470E-01       5    8    1        -0.5413520906E+01      0.1299018546E+02
          0                 3           2             4    7     1      -0.5741014229E+00       4    7    1        -0.3081167261E+02      0.7544070296E+02
          0                 4           2             4    7     1       0.3909781779E-01       4    7    1         0.2157037378E+01      0.5282037749E+01
          0                 5           2             4    7     1      -0.1556116557E-02       4    7    1        -0.8824580409E-01      0.2161252108E+00
          0                 6           1             4    7     1       0.1920182286E-04       4    7    1         0.1119192709E-02      0.2741580065E-02

    ------------------------------------------------
       NWT REQUIRED            6 OUTER ITERATIONS 
       AND A TOTAL OF         11 INNER ITERATIONS.
    ------------------------------------------------

 NO OUTPUT CONTROL FOR STRESS PERIOD   32   TIME STEP   17
 
 SOLVING FOR HEAD 
                                                   Max.-Head-Change                         Max.-Flux-Residual
  Residual-Control   Outer-Iter.   Inner-Iter.     Column Row Layer    Maximum-Head-Change  Column Row Layer    Maximum-Flux-Residual          L2-NORM 
          0                 1           2             5    8     1       0.1108182977E+00       5    8    1         0.6069944515E+01      0.1335324655E+02
          0                 2           2             5    8     1      -0.1247856337E-01       5    8    1        -0.7005303138E+00      0.1530442298E+01
          0                 3           2             4    7     1      -0.6375281349E-01       4    7    1        -0.3422018042E+01      0.8388870107E+01
          0                 4           2             4    7     1       0.6522410372E-01       4    7    1         0.3598363265E+01      0.8811592517E+01
          0                 5           2             4    7     1      -0.9570220523E-03       4    7    1        -0.5427470346E-01      0.1346670366E+00
          0                 6           1             4    7     1       0.4471533726E-04       4    7    1         0.2606177181E-02      0.7350877045E-02

    ------------------------------------------------
       NWT REQUIRED            6 OUTER ITERATIONS 
       AND A TOTAL OF         11 INNER ITERATIONS.
    ------------------------------------------------

 NO OUTPUT CONTROL FOR STRESS PERIOD   32   TIME STEP   18
 
 SOLVING FOR HEAD 
                                                   Max.-Head-Change                         Max.-Flux-Residual
  Residual-Control   Outer-Iter.   Inner-Iter.     Column Row Layer    Maximum-Head-Change  Column Row Layer    Maximum-Flux-Residual          L2-NORM 
          0                 1           2             5    8     1       0.1052809362E+00       5    8    1         0.5761188010E+01      0.1280201845E+02
          0                 2           2             5    8     1      -0.1207066971E+00       5    8    1        -0.6657921139E+01      0.1600891616E+02
          0                 3           2             4    7     1      -0.2333764550E+00       4    7    1        -0.1252532122E+02      0.3064637736E+02
          0                 4           2             4    7     1       0.1589402814E-01       4    7    1         0.8768932939E+00      0.2145794904E+01
          0                 5           2             4    7     1      -0.6325897040E-03       4    7    1        -0.3587418511E-01      0.8779981260E-01
          0                 6           1             4    7     1       0.7805894134E-05       4    7    1         0.4549812943E-03      0.1113765937E-02

    ------------------------------------------------
       NWT REQUIRED            6 OUTER ITERATIONS 
       AND A TOTAL OF         11 INNER ITERATIONS.
    ------------------------------------------------

 NO OUTPUT CONTROL FOR STRESS PERIOD   32   TIME STEP   19
 
 SOLVING FOR HEAD 
                                                   Max.-Head-Change                         Max.-Flux-Residual
  Residual-Control   Outer-Iter.   Inner-Iter.     Column Row Layer    Maximum-Head-Change  Column Row Layer    Maximum-Flux-Residual          L2-NORM 
          0                 1           2             5    8     1       0.1103186325E+00       5    8    1         0.6036290986E+01      0.1344795383E+02
          0                 2           2             5    8     1      -0.2634300224E-01       5    8    1        -0.1463159594E+01      0.3321045817E+01
          0                 3           2             4    7     1      -0.5544513407E-01       4    7    1        -0.2976102736E+01      0.7290744498E+01
          0                 4           2             4    7     1       0.5639745965E-01       4    7    1         0.3111380578E+01      0.7619019709E+01
          0                 5           2             4    7     1      -0.3891505321E-02       4    7    1        -0.2206761491E+00      0.5405056217E+00
          0                 6           2             4    7     1      -0.1671123627E-02       4    7    1        -0.9476143389E-01      0.2321159190E+00
          0                 7           2             4    7     1      -0.1651020266E-01       4    7    1        -0.9362072574E+00      0.2293228604E+01
          0                 8           2             4    7     1       0.2040487223E-03       5    8    1         0.1190406152E-01      0.2916303890E-01
          0                 9           1             4    7     1       0.2995171025E-05       5    8    1         0.1747344513E-03      0.4280726054E-03

    ------------------------------------------------
       NWT REQUIRED            9 OUTER ITERATIONS 
       AND A TOTAL OF         17 INNER ITERATIONS.
    ------------------------------------------------

 NO OUTPUT CONTROL FOR STRESS PERIOD   32   TIME STEP   20
 
 SOLVING FOR HEAD 
                                                   Max.-Head-Change                         Max.-Flux-Residual
  Residual-Control   Outer-Iter.   Inner-Iter.     Column Row Layer    Maximum-Head-Change  Column Row Layer    Maximum-Flux-Residual          L2-NORM 
          0                 1           2             5    8     1       0.1060196081E+00       5    8    1         0.5796178744E+01      0.1303503606E+02
          0                 2           2             5    8     1      -0.1004382579E+00       5    8    1        -0.5541550307E+01      0.1330737486E+02
          0                 3           2             4    7     1      -0.5196762435E+00       4    7    1        -0.2789020775E+02      0.6828400093E+02
          0                 4           2             4    7     1       0.3539154132E-01       4    7    1         0.1952528000E+01      0.4780987163E+01
          0                 5           2             4    7     1      -0.1408603779E-02       4    7    1        -0.7987916281E-01      0.1956237480E+00
          0                 6           1             4    7     1       0.1738157824E-04       4    7    1         0.1013081619E-02      0.2481516355E-02

    ------------------------------------------------
       NWT REQUIRED            6 OUTER ITERATIONS 
       AND A TOTAL OF         11 INNER ITERATIONS.
    ------------------------------------------------

 NO OUTPUT CONTROL FOR STRESS PERIOD   32   TIME STEP   21
 
 SOLVING FOR HEAD 
                                                   Max.-Head-Change                         Max.-Flux-Residual
  Residual-Control   Outer-Iter.   Inner-Iter.     Column Row Layer    Maximum-Head-Change  Column Row Layer    Maximum-Flux-Residual          L2-NORM 
          0                 1           2             5    8     1       0.1187353047E+00       5    8    1         0.6495127098E+01      0.1454241751E+02
          0                 2           2             5    8     1      -0.1332515743E-01       5    8    1        -0.7472586526E+00      0.1660337416E+01
          0                 3           2             4    7     1      -0.6640288908E-01       4    7    1        -0.3564165891E+01      0.8739273907E+01
          0                 4           2             4    7     1       0.6818259778E-01       4    7    1         0.3761506954E+01      0.9211268863E+01
          0                 5           2             4    7     1      -0.1620222243E-01       4    7    1        -0.9187576209E+00      0.2250443716E+01
          0                 6           2             4    7     1      -0.1534974553E-02       4    7    1        -0.8703943080E-01      0.2131925903E+00
          0                 7           2             4    7     1      -0.8633507234E-02       4    7    1        -0.4895558085E+00      0.1199160427E+01
          0                 8           2             4    7     1       0.1067014683E-03       5    8    1         0.6224829304E-02      0.1524985094E-01
          0                 9           1             4    7     1       0.1566239457E-05       5    8    1         0.9137149436E-04      0.2238457910E-03

    ------------------------------------------------
       NWT REQUIRED            9 OUTER ITERATIONS 
       AND A TOTAL OF         17 INNER ITERATIONS.
    ------------------------------------------------

 NO OUTPUT CONTROL FOR STRESS PERIOD   32   TIME STEP   22
 
 SOLVING FOR HEAD 
                                                   Max.-Head-Change                         Max.-Flux-Residual
  Residual-Control   Outer-Iter.   Inner-Iter.     Column Row Layer    Maximum-Head-Change  Column Row Layer    Maximum-Flux-Residual          L2-NORM 
          0                 1           2             5    8     1       0.1137222524E+00       5    8    1         0.6215493084E+01      0.1405353342E+02
          0                 2           2             5    8     1      -0.1002152490E+00       5    8    1        -0.5529935945E+01      0.1326792098E+02
          0                 3           2             4    7     1      -0.5157854364E+00       4    7    1        -0.2768111895E+02      0.6777034775E+02
          0                 4           2             4    7     1       0.3512657647E-01       4    7    1         0.1937891070E+01      0.4745025118E+01
          0                 5           2             4    7     1      -0.1398057974E-02       4    7    1        -0.7928036173E-01      0.1941523886E+00
          0                 6           1             4    7     1       0.1725144795E-04       4    7    1         0.1005487336E-02      0.2462854003E-02

    ------------------------------------------------
       NWT REQUIRED            6 OUTER ITERATIONS 
       AND A TOTAL OF         11 INNER ITERATIONS.
    ------------------------------------------------

 NO OUTPUT CONTROL FOR STRESS PERIOD   32   TIME STEP   23
 
 SOLVING FOR HEAD 
                                                   Max.-Head-Change                         Max.-Flux-Residual
  Residual-Control   Outer-Iter.   Inner-Iter.     Column Row Layer    Maximum-Head-Change  Column Row Layer    Maximum-Flux-Residual          L2-NORM 
          0                 1           2             5    8     1       0.1259511780E+00       5    8    1         0.6887489543E+01      0.1550595512E+02
          0                 2           2             5    8     1      -0.1394452972E-01       5    8    1        -0.7819495804E+00      0.1747170097E+01
          0                 3           2             4    7     1      -0.6682125096E-01       4    7    1        -0.3586592871E+01      0.8793229754E+01
          0                 4           2             4    7     1       0.6841289777E-01       4    7    1         0.3774172521E+01      0.9242221091E+01
          0                 5           2             4    7     1      -0.1806912741E-01       4    7    1        -0.1024610082E+01      0.2509724647E+01
          0                 6           2             4    7     1      -0.1387628038E-01       4    7    1        -0.7868413298E+00      0.1927346912E+01
          0                 7           2             4    7     1       0.1713614290E-03       5    8    1         0.9997179699E-02      0.2449177547E-01
          0                 8           1             4    7     1       0.2517026053E-05       5    8    1         0.1468411429E-03      0.3597414961E-03

    ------------------------------------------------
       NWT REQUIRED            8 OUTER ITERATIONS 
       AND A TOTAL OF         15 INNER ITERATIONS.
    ------------------------------------------------

 NO OUTPUT CONTROL FOR STRESS PERIOD   32   TIME STEP   24
 
 SOLVING FOR HEAD 
                                                   Max.-Head-Change                         Max.-Flux-Residual
  Residual-Control   Outer-Iter.   Inner-Iter.     Column Row Layer    Maximum-Head-Change  Column Row Layer    Maximum-Flux-Residual          L2-NORM 
          0                 1           2             5    8     1       0.1207982215E+00       5    8    1         0.6600072003E+01      0.1500472131E+02
          0                 2           2             5    8     1      -0.1008887724E+00       5    8    1        -0.5567517621E+01      0.1335272682E+02
          0                 3           2             4    7     1      -0.4839396287E+00       4    7    1        -0.2597177489E+02      0.6358219422E+02
          0                 4           2             4    7     1       0.3295779645E-01       4    7    1         0.1818225859E+01      0.4451789520E+01
          0                 5           2             4    7     1      -0.1311738868E-02       4    7    1        -0.7438476772E-01      0.1821541308E+00
          0                 6           1             4    7     1       0.1618630704E-04       4    7    1         0.9433982673E-03      0.2310656896E-02

    ------------------------------------------------
       NWT REQUIRED            6 OUTER ITERATIONS 
       AND A TOTAL OF         11 INNER ITERATIONS.
    ------------------------------------------------

 NO OUTPUT CONTROL FOR STRESS PERIOD   32   TIME STEP   25
 
 SOLVING FOR HEAD 
                                                   Max.-Head-Change                         Max.-Flux-Residual
  Residual-Control   Outer-Iter.   Inner-Iter.     Column Row Layer    Maximum-Head-Change  Column Row Layer    Maximum-Flux-Residual          L2-NORM 
          0                 1           2             5    8     1       0.1318338798E+00       5    8    1         0.7204902924E+01      0.1631728983E+02
          0                 2           2             5    8     1      -0.1436358144E-01       5    8    1        -0.8052592147E+00      0.1810630174E+01
          0                 3           2             4    7     1      -0.6895721686E-01       4    7    1        -0.3701186514E+01      0.9074600397E+01
          0                 4           2             4    7     1       0.7025153261E-01       4    7    1         0.3875562651E+01      0.9490662695E+01
          0                 5           2             4    7     1      -0.2003819310E-01       4    7    1        -0.1136253125E+01      0.2783193575E+01
          0                 6           2             4    7     1      -0.4602582866E-02       4    7    1        -0.2609814688E+00      0.6392576948E+00
          0                 7           1             4    7     1       0.5683862810E-04       5    8    1         0.3316059112E-02      0.8124173930E-02

    ------------------------------------------------
       NWT REQUIRED            7 OUTER ITERATIONS 
       AND A TOTAL OF         13 INNER ITERATIONS.
    ------------------------------------------------

 NO OUTPUT CONTROL FOR STRESS PERIOD   32   TIME STEP   26
 
 SOLVING FOR HEAD 
                                                   Max.-Head-Change                         Max.-Flux-Residual
  Residual-Control   Outer-Iter.   Inner-Iter.     Column Row Layer    Maximum-Head-Change  Column Row Layer    Maximum-Flux-Residual          L2-NORM 
          0                 1           2             5    8     1       0.1262492294E+00       5    8    1         0.6893814842E+01      0.1576738944E+02
          0                 2           2             5    8     1      -0.1013851406E+00       5    8    1        -0.5595105623E+01      0.1341941923E+02
          0                 3           2             4    7     1      -0.5380130409E+00       4    7    1        -0.2887339200E+02      0.7068932722E+02
          0                 4           2             4    7     1       0.3664027627E-01       4    7    1         0.2021355236E+01      0.4949392679E+01
          0                 5           2             4    7     1      -0.1458304423E-02       4    7    1        -0.8269496455E-01      0.2025146121E+00
          0                 6           1             4    7     1       0.1799486302E-04       4    7    1         0.1048793733E-02      0.2568931396E-02

    ------------------------------------------------
       NWT REQUIRED            6 OUTER ITERATIONS 
       AND A TOTAL OF         11 INNER ITERATIONS.
    ------------------------------------------------

 NO OUTPUT CONTROL FOR STRESS PERIOD   32   TIME STEP   27
 
 SOLVING FOR HEAD 
                                                   Max.-Head-Change                         Max.-Flux-Residual
  Residual-Control   Outer-Iter.   Inner-Iter.     Column Row Layer    Maximum-Head-Change  Column Row Layer    Maximum-Flux-Residual          L2-NORM 
          0                 1           2             5    8     1       0.1386319539E+00       5    8    1         0.7574065883E+01      0.1722876520E+02
          0                 2           2             5    8     1      -0.1520804747E-01       5    8    1        -0.8522609676E+00      0.1923826214E+01
          0                 3           2             4    7     1      -0.6544572850E-01       4    7    1        -0.3512707803E+01      0.8610118132E+01
          0                 4           2             4    7     1       0.6696251688E-01       4    7    1         0.3694079149E+01      0.9045882857E+01
          0                 5           2             4    7     1      -0.9977491190E-03       4    7    1        -0.5658146828E-01      0.1386007179E+00
          0                 6           2             4    7     1      -0.1491046789E-01       5    6    1        -0.8454669667E+00      0.2070962244E+01
          0                 7           2             4    7     1      -0.1565242055E-02       4    7    1        -0.8875198858E-01      0.2173862397E+00
          0                 8           1             4    7     1       0.1934488452E-04       5    8    1         0.1128673145E-02      0.2765378252E-02

    ------------------------------------------------
       NWT REQUIRED            8 OUTER ITERATIONS 
       AND A TOTAL OF         15 INNER ITERATIONS.
    ------------------------------------------------

 NO OUTPUT CONTROL FOR STRESS PERIOD   32   TIME STEP   28
 
 SOLVING FOR HEAD 
                                                   Max.-Head-Change                         Max.-Flux-Residual
  Residual-Control   Outer-Iter.   Inner-Iter.     Column Row Layer    Maximum-Head-Change  Column Row Layer    Maximum-Flux-Residual          L2-NORM 
          0                 1           2             5    8     1       0.1325392179E+00       5    8    1         0.7234907043E+01      0.1662520637E+02
          0                 2           2             5    8     1      -0.1017927607E+00       5    8    1        -0.5617979915E+01      0.1347140193E+02
          0                 3           2             4    7     1      -0.5746888245E+00       4    7    1        -0.3084068666E+02      0.7550788631E+02
          0                 4           2             4    7     1       0.3913781687E-01       4    7    1         0.2159069325E+01      0.5286744186E+01
          0                 5           2             4    7     1      -0.1557708566E-02       4    7    1        -0.8832897387E-01      0.2163180945E+00
          0                 6           1             4    7     1       0.1922146753E-04       4    7    1         0.1120248023E-02      0.2744030122E-02

    ------------------------------------------------
       NWT REQUIRED            6 OUTER ITERATIONS 
       AND A TOTAL OF         11 INNER ITERATIONS.
    ------------------------------------------------

 NO OUTPUT CONTROL FOR STRESS PERIOD   32   TIME STEP   29
 
 SOLVING FOR HEAD 
                                                   Max.-Head-Change                         Max.-Flux-Residual
  Residual-Control   Outer-Iter.   Inner-Iter.     Column Row Layer    Maximum-Head-Change  Column Row Layer    Maximum-Flux-Residual          L2-NORM 
          0                 1           2             5    8     1       0.1457184305E+00       5    8    1         0.7958973532E+01      0.1817390340E+02
          0                 2           2             5    8     1      -0.1588903375E-01       5    8    1        -0.8902920818E+00      0.2017619865E+01
          0                 3           2             4    7     1      -0.6347004486E-01       4    7    1        -0.3406567321E+01      0.8347911340E+01
          0                 4           2             4    7     1       0.6517299077E-01       4    7    1         0.3595249587E+01      0.8803723997E+01
          0                 5           2             4    7     1      -0.9552567490E-03       4    7    1        -0.5417024689E-01      0.1343613756E+00
          0                 6           2             4    7     1      -0.2296173994E-03       5    6    1        -0.1302000725E-01      0.3227139966E-01
          0                 7           2             4    7     1      -0.1338532694E-01       4    7    1        -0.7589562950E+00      0.1859055435E+01
          0                 8           2             4    7     1      -0.1592429807E-02       4    7    1        -0.9029007347E-01      0.2211546970E+00
          0                 9           1             4    7     1       0.1969639187E-04       5    8    1         0.1149116041E-02      0.2815421013E-02

    ------------------------------------------------
       NWT REQUIRED            9 OUTER ITERATIONS 
       AND A TOTAL OF         17 INNER ITERATIONS.
    ------------------------------------------------

 NO OUTPUT CONTROL FOR STRESS PERIOD   32   TIME STEP   30



 STREAM LISTING     PERIOD     32   STEP       30

 LAYER ROW COL. STREAM  RCH.  FLOW INTO     FLOW TO   FLOW OUT OF   OVRLND.     DIRECT     STREAM       STREAM     STREAM     STREAM   STREAMBED  STREAMBED
                SEG.NO.  NO.  STRM. RCH.    AQUIFER    STRM. RCH.    RUNOFF     PRECIP       ET          HEAD       DEPTH      WIDTH   CONDCTNC.   GRADIENT

   1    1    1     1     1    2.8124E+01  2.5914E-01   2.7865E+01  0.000E+00  0.000E+00  0.000E+00  1.09427E+03  1.223E+00  1.364E+01  6.136E-02  1.408E+00
   1    2    2     1     2    2.7865E+01  4.0087E-01   2.7464E+01  0.000E+00  0.000E+00  0.000E+00  1.08928E+03  1.218E+00  1.358E+01  9.503E-02  1.406E+00
   1    3    3     1     3    2.7464E+01  3.4142E-01   2.7123E+01  0.000E+00  0.000E+00  0.000E+00  1.08363E+03  1.213E+00  1.351E+01  8.103E-02  1.404E+00
   1    3    4     1     4    2.7123E+01  3.1402E-01   2.6809E+01  0.000E+00  0.000E+00  0.000E+00  1.07862E+03  1.209E+00  1.344E+01  7.461E-02  1.403E+00
   1    4    5     2     1    2.4809E+01  3.2738E-01   2.4481E+01  0.000E+00  0.000E+00  0.000E+00  1.07313E+03  1.197E+00  1.200E+01  7.800E-02  1.399E+00
   1    5    6     2     2    2.4481E+01  2.5133E-01   2.4230E+01  0.000E+00  0.000E+00  0.000E+00  1.06770E+03  1.189E+00  1.200E+01  6.000E-02  1.396E+00
   1    6    6     2     3    2.4230E+01  2.5089E-01   2.3979E+01  0.000E+00  0.000E+00  0.000E+00  1.06297E+03  1.181E+00  1.200E+01  6.000E-02  1.394E+00
   1    7    6     2     4    2.3979E+01  2.5044E-01   2.3729E+01  0.000E+00  0.000E+00  0.000E+00  1.05825E+03  1.174E+00  1.200E+01  6.000E-02  1.391E+00
   1    8    6     2     5    2.3729E+01  2.5000E-01   2.3479E+01  0.000E+00  0.000E+00  0.000E+00  1.05353E+03  1.167E+00  1.200E+01  6.000E-02  1.389E+00
   1    3    5     3     1    2.0000E+00  2.8252E-01   1.7175E+00  0.000E+00  0.000E+00  0.000E+00  1.07555E+03  1.909E+00  9.636E+00  7.227E-02  1.955E+00
   1    3    6     3     2    1.7175E+00  2.4905E-01   1.4684E+00  0.000E+00  0.000E+00  0.000E+00  1.07264E+03  1.727E+00  8.909E+00  6.682E-02  1.864E+00
   1    3    7     3     3    1.4684E+00  1.9718E-01   1.2712E+00  0.000E+00  0.000E+00  0.000E+00  1.06987E+03  1.555E+00  8.218E+00  5.547E-02  1.777E+00
   1    4    8     3     4    1.2712E+00  2.2567E-01   1.0456E+00  0.000E+00  0.000E+00  0.000E+00  1.06682E+03  1.364E+00  7.455E+00  6.709E-02  1.682E+00
   1    5    8     3     5    1.0456E+00  1.5790E-01   8.8768E-01  0.000E+00  0.000E+00  0.000E+00  1.06362E+03  1.164E+00  6.655E+00  4.991E-02  1.582E+00
   1    6    8     3     6    8.8768E-01  5.5980E-02   8.3170E-01  0.000E+00  0.000E+00  0.000E+00  1.06158E+03  1.036E+00  6.145E+00  1.844E-02  1.518E+00
   1    5   10     4     1    1.0000E+01  9.0919E-02   9.9091E+00  0.000E+00  0.000E+00  0.000E+00  1.07836E+03  6.368E-01  1.000E+01  2.500E-02  1.212E+00
   1    5    9     4     2    9.9091E+00  1.8158E-01   9.7275E+00  0.000E+00  0.000E+00  0.000E+00  1.07154E+03  6.315E-01  1.000E+01  5.000E-02  1.211E+00
   1    6    8     4     3    9.7275E+00  1.2689E-01   9.6006E+00  0.000E+00  0.000E+00  0.000E+00  1.06381E+03  6.256E-01  1.000E+01  3.500E-02  1.209E+00
   1    6    8     5     1    1.0432E+01  2.2686E-01   1.0205E+01  0.000E+00  0.000E+00  0.000E+00  1.05868E+03  6.790E-01  1.542E+01  6.166E-02  1.226E+00
   1    7    7     5     2    1.0205E+01  2.7894E-01   9.9265E+00  0.000E+00  0.000E+00  0.000E+00  1.05417E+03  6.732E-01  1.519E+01  7.594E-02  1.224E+00
   1    8    7     5     3    9.9265E+00  1.9221E-01   9.7343E+00  0.000E+00  0.000E+00  0.000E+00  1.04992E+03  6.676E-01  1.497E+01  5.241E-02  1.223E+00
   1    8    6     5     4    9.7343E+00  1.3577E-01   9.5985E+00  0.000E+00  0.000E+00  0.000E+00  1.04691E+03  6.637E-01  1.482E+01  3.706E-02  1.221E+00
   1    9    6     6     1    9.5985E+00  2.2097E-01   9.3776E+00  0.000E+00  0.000E+00  0.000E+00  1.04341E+03  6.828E-01  1.200E+01  6.000E-02  1.228E+00
   1   10    7     6     2    9.3776E+00  2.2039E-01   9.1572E+00  0.000E+00  0.000E+00  0.000E+00  1.03885E+03  6.732E-01  1.200E+01  6.000E-02  1.224E+00
   1   11    7     6     3    9.1572E+00  2.1981E-01   8.9374E+00  0.000E+00  0.000E+00  0.000E+00  1.03430E+03  6.636E-01  1.200E+01  6.000E-02  1.221E+00
   1   12    7     6     4    8.9374E+00  2.1923E-01   8.7181E+00  0.000E+00  0.000E+00  0.000E+00  1.02974E+03  6.539E-01  1.200E+01  6.000E-02  1.218E+00
   1   13    7     6     5    8.7181E+00  5.0946E-04   8.7176E+00  0.000E+00  0.000E+00  0.000E+00  1.02656E+03  6.490E-01  1.200E+01  2.400E-02  7.076E-03
   1   14    9     7     1    1.5000E+02  1.3912E+00   1.4861E+02  0.000E+00  0.000E+00  0.000E+00  1.03987E+03  2.288E+00  5.529E+01  5.593E-01  8.291E-01
   1   13    8     7     2    1.4861E+02  2.0090E+00   1.4660E+02  0.000E+00  0.000E+00  0.000E+00  1.03478E+03  2.279E+00  5.525E+01  6.147E-01  1.089E+00
   1   13    7     7     3    1.4660E+02  1.7594E+00   1.4484E+02  0.000E+00  0.000E+00  0.000E+00  1.02969E+03  2.268E+00  5.521E+01  5.584E-01  1.050E+00
   1   13    6     8     1    1.5356E+02  1.1097E+00   1.5245E+02  0.000E+00  0.000E+00  0.000E+00  1.02471E+03  2.838E+00  4.115E+01  4.193E-01  8.821E-01
   1   13    5     8     2    1.5245E+02  3.6218E-01   1.5209E+02  0.000E+00  0.000E+00  0.000E+00  1.01846E+03  2.833E+00  4.107E+01  4.186E-01  2.884E-01
   1   13    4     8     3    1.5209E+02 -1.7791E+00   1.5387E+02  0.000E+00  0.000E+00  0.000E+00  1.01221E+03  2.838E+00  4.115E+01  4.193E+00 -1.414E-01
   1   13    3     8     4    1.5387E+02 -3.3210E+00   1.5719E+02  0.000E+00  0.000E+00  0.000E+00  1.00598E+03  2.855E+00  4.140E+01  4.219E+00 -2.624E-01
   1   13    2     8     5    1.5719E+02 -2.5136E+00   1.5970E+02  0.000E+00  0.000E+00  0.000E+00  9.99750E+02  2.875E+00  4.169E+01  4.249E+00 -1.972E-01
   1   13    1     8     6    1.5970E+02 -1.9858E+00   1.6169E+02  0.000E+00  0.000E+00  0.000E+00  9.94766E+02  2.891E+00  4.191E+01  2.563E+00 -2.583E-01
   1    8    6     9     1    2.3479E+01  0.0000E+00   2.3479E+01  0.000E+00  0.000E+00  0.000E+00  1.08253E+03  3.782E+00  4.000E+00  0.000E+00  2.261E+00
   1    8    5     9     2    2.3479E+01  0.0000E+00   2.3479E+01  0.000E+00  0.000E+00  0.000E+00  1.08203E+03  3.782E+00  4.000E+00  0.000E+00  2.261E+00





UNSATURATED ZONE PACKAGE VOLUMETRIC BUDGET FOR  TIME STEP    30 STRESS PERIOD   32
  ------------------------------------------------------------------------------



     CUMULATIVE VOLUMES      L**3       RATES FOR THIS TIME STEP      L**3/T
     ------------------                 ------------------------

           IN:                                      IN:
           ---                                      ---
        INFILTRATION =  1523411250.2822          INFILTRATION =          30.0729

          OUT:                                     OUT:
          ----                                     ----
              UZF ET =  1114685247.9566                UZF ET =          60.8899
        UZF RECHARGE =      729522.8547          UZF RECHARGE =       0.0000E+00

            IN - OUT =   407996479.4708              IN - OUT =         -30.8170

          STORAGE:                                 STORAGE:
          --------                                 --------
      STORAGE CHANGE =   408001047.1537        STORAGE CHANGE =         -30.8170

 PERCENT DISCREPANCY IS DIFFERENCE BETWEEN IN-OUT MINUS CHANGE IN STORAGE
 DIVIDED BY THE AVERAGE OF IN AND OUT TIMES 100

 PERCENT DISCREPANCY =          -0.00     PERCENT DISCREPANCY =           0.00






1
  VOLUMETRIC BUDGET FOR AGRICULTURAL FIELDS AT  END OF TIME STEP   30, STRESS PERIOD  32
  ------------------------------------------------------------------------------

     CUMULATIVE VOLUMES      L**3       RATES FOR THIS TIME STEP      L**3/T
     ------------------                 ------------------------

           IN:                                      IN:
           ---                                      ---
               AG WELLS  =   956010752.0000                 AG WELLS  =           5.7462
      DIVERSION SEGMENTS =   498412928.0000        DIVERSION SEGMENTS =          23.4787
       IRRIGATION PONDS  =           0.0000         IRRIGATION PONDS  =           0.0000
           GW IRRIGATION =           0.0000             GW IRRIGATION =           0.0000
           SW IRRIGATION =           0.0000             SW IRRIGATION =           0.0000
        SYSTEM LOSSES GW =           0.0000          SYSTEM LOSSES GW =           0.0000
        SYSTEM LOSSES SW =           0.0000          SYSTEM LOSSES SW =           0.0000

                TOTAL IN =  1454423680.0000                  TOTAL IN =          29.2249

          OUT:                                     OUT:
          ----                                     ----
               AG WELLS  =           0.0000                 AG WELLS  =           0.0000
      DIVERSION SEGMENTS =           0.0000        DIVERSION SEGMENTS =           0.0000
       IRRIGATION PONDS  =           0.0000         IRRIGATION PONDS  =           0.0000
           GW IRRIGATION =   956010752.0000             GW IRRIGATION =           5.7462
           SW IRRIGATION =   498422784.0000             SW IRRIGATION =          23.4791
        SYSTEM LOSSES GW =           0.0000          SYSTEM LOSSES GW =           0.0000
        SYSTEM LOSSES SW =           0.0000          SYSTEM LOSSES SW =           0.0000

               TOTAL OUT =  1454433536.0000                 TOTAL OUT =          29.2254

                IN - OUT =       -9856.0000                  IN - OUT =      -4.6921E-04

     PERCENT DISCREPANCY =          -0.00         PERCENT DISCREPANCY =          -0.00



1
  VOLUMETRIC BUDGET FOR ENTIRE MODEL AT END OF TIME STEP   30, STRESS PERIOD  32
  ------------------------------------------------------------------------------

     CUMULATIVE VOLUMES      L**3       RATES FOR THIS TIME STEP      L**3/T
     ------------------                 ------------------------

           IN:                                      IN:
           ---                                      ---
             STORAGE     =  1395962368.0000               STORAGE     =          33.8711
       CONSTANT HEAD     =           0.0000         CONSTANT HEAD     =           0.0000
     HEAD DEP BOUNDS     =    23537364.0000       HEAD DEP BOUNDS     =           0.2895
      STREAM LEAKAGE     =   973928448.0000        STREAM LEAKAGE     =          12.5593
        UZF RECHARGE     =      729522.8125          UZF RECHARGE     =           0.0000
               GW ET     =           0.0000                 GW ET     =           0.0000
     SURFACE LEAKAGE     =           0.0000       SURFACE LEAKAGE     =           0.0000
           AG WELLS      =           0.0000             AG WELLS      =           0.0000

                TOTAL IN =  2394157824.0000                  TOTAL IN =          46.7199

          OUT:                                     OUT:
          ----                                     ----
             STORAGE     =   603286464.0000               STORAGE     =          31.0876
       CONSTANT HEAD     =           0.0000         CONSTANT HEAD     =           0.0000
     HEAD DEP BOUNDS     =    23497788.0000       HEAD DEP BOUNDS     =           0.2865
      STREAM LEAKAGE     =   811371520.0000        STREAM LEAKAGE     =           9.5995
        UZF RECHARGE     =           0.0000          UZF RECHARGE     =           0.0000
               GW ET     =           0.0000                 GW ET     =           0.0000
     SURFACE LEAKAGE     =           0.0000       SURFACE LEAKAGE     =           0.0000
           AG WELLS      =   956010752.0000             AG WELLS      =           5.7462

               TOTAL OUT =  2394166528.0000                 TOTAL OUT =          46.7198

                IN - OUT =       -8704.0000                  IN - OUT =       9.9182E-05

     PERCENT DISCREPANCY =          -0.00         PERCENT DISCREPANCY =           0.00






         TIME SUMMARY AT END OF TIME STEP   30 IN STRESS PERIOD   32
                    SECONDS     MINUTES      HOURS       DAYS        YEARS
                    -----------------------------------------------------------
   TIME STEP LENGTH  87667.      1461.1      24.352      1.0147     2.77799E-03
 STRESS PERIOD TIME 2.63000E+06  43833.      730.56      30.440     8.33397E-02
         TOTAL TIME 8.16164E+07 1.36027E+06  22671.      944.63      2.5863    
1
1
                            STRESS PERIOD NO.   33, LENGTH =   2630000.    
                            -----------------------------------------------

                              NUMBER OF TIME STEPS =    30

                               MULTIPLIER FOR DELT =     1.000

                            INITIAL TIME STEP SIZE =   87666.66    

 REUSING NON-PARAMETER GHB CELLS FROM LAST STRESS PERIOD

      2 GHB CELLS

 REUSING STREAM SEGMENT DATA FROM LAST STRESS PERIOD



            AREAL INFILTRATION RATE
 READING ON UNIT   19 WITH FORMAT: (FREE)              

            1           2           3           4           5           6           7           8           9          10
 ........................................................................................................................
   1   1.0000E-10  2.0000E-10   0.000       0.000       0.000       0.000       0.000       0.000       0.000       0.000    
   2   2.0000E-10  1.0000E-10  2.0000E-10   0.000       0.000      8.0000E-10  8.0000E-10  5.0000E-10   0.000       0.000    
   3    0.000      5.0000E-10  1.0000E-10  1.0000E-10  8.0000E-10  8.0000E-10  5.0000E-10  5.0000E-10   0.000       0.000    
   4   8.0000E-10  5.0000E-10  1.0000E-10  1.0000E-10  1.0000E-10  1.0000E-10  1.0000E-10  1.0000E-10  2.0000E-10   0.000    
   5   8.0000E-10  5.0000E-10  1.0000E-10  1.0000E-10  1.0000E-10  1.0000E-10  1.0000E-10  1.0000E-10  1.0000E-10  1.0000E-10
   6   8.0000E-10  5.0000E-10  5.0000E-10  2.0000E-10  2.0000E-10  1.0000E-10  1.0000E-10  1.0000E-10  1.0000E-10  5.0000E-10
   7   8.0000E-10  5.0000E-10  5.0000E-10  2.0000E-10  2.0000E-10  1.0000E-10  1.0000E-10  2.0000E-10  2.0000E-10   0.000    
   8    0.000      5.0000E-10  5.0000E-10  2.0000E-10  2.0000E-10  1.0000E-10  1.0000E-10  2.0000E-10  5.0000E-10   0.000    
   9    0.000      5.0000E-10  5.0000E-10  2.0000E-10  2.0000E-10  1.0000E-10  1.0000E-10  2.0000E-10  5.0000E-10   0.000    
  10    0.000      5.0000E-10  5.0000E-10  2.0000E-10  2.0000E-10  1.0000E-10  1.0000E-10  2.0000E-10  5.0000E-10  8.0000E-10
  11    0.000      1.0000E-10  1.0000E-10  1.0000E-10  1.0000E-10  1.0000E-10  1.0000E-10  2.0000E-10  5.0000E-10   0.000    
  12   1.0000E-10  1.0000E-10  1.0000E-10  1.0000E-10  1.0000E-10  1.0000E-10  1.0000E-10  1.0000E-10  2.0000E-10   0.000    
  13   1.0000E-10  1.0000E-10  2.0000E-10  2.0000E-10  2.0000E-10  2.0000E-10  2.0000E-10  1.0000E-10  1.0000E-10   0.000    
  14    0.000      2.0000E-10  5.0000E-10  5.0000E-10  5.0000E-10  5.0000E-10  5.0000E-10  2.0000E-10  1.0000E-10   0.000    
  15    0.000       0.000      8.0000E-10  8.0000E-10  8.0000E-10  8.0000E-10   0.000       0.000       0.000       0.000    

                  ET RATE =  3.250000E-07

 USING ET EXTINCTION DEPTH FROM PREVIOUS STRESS PERIOD. CURRENT PERIOD IS:      33

 USING EXTINCTION WATER CONTENT FROM PREVIOUS STRESS PERIOD. CURRENT PERIOD IS:      33

 USING AIR ENTRY PRESSURE FROM PREVIOUS STRESS PERIOD. CURRENT PERIOD IS:      33

 USING ROOT PRESSURE HEAD FROM PREVIOUS STRESS PERIOD. CURRENT PERIOD IS:      33

 USING ROOT ACTIVITY FROM PREVIOUS STRESS PERIOD. CURRENT PERIOD IS:      33

 PROCESSING AG STRESS PERIOD DATA

 READING AG STRESS PERIOD DATA

 READING IRRIGATION SEGMENT

 READING IRRIGATION WELL

 READING SUPPLEMENTAL WELL

 NO IRRPOND OR REUSING IRRPOND DATA FROM LAST STRESS PERIOD

 END PROCESSING AG STRESS PERIOD DATA OPTIONS
 
 SOLVING FOR HEAD 
                                                   Max.-Head-Change                         Max.-Flux-Residual
  Residual-Control   Outer-Iter.   Inner-Iter.     Column Row Layer    Maximum-Head-Change  Column Row Layer    Maximum-Flux-Residual          L2-NORM 
          0                 1           2             5    8     1       0.1392791596E+00       5    8    1         0.7600630050E+01      0.1751414971E+02
          0                 2           2             5    6     1      -0.1456275697E+00       5    8    1        -0.8030842609E+01      0.1932625856E+02
          0                 3           2             5    6     1       0.9916624037E-02       5    8    1         0.5621543840E+00      0.1352827534E+01
          0                 4           2             5    6     1      -0.3945920970E-03       5    8    1        -0.2299216880E-01      0.5533077486E-01
          0                 5           1             5    6     1       0.4865484475E-05       5    8    1         0.2913816147E-03      0.7012143432E-03

    ------------------------------------------------
       NWT REQUIRED            5 OUTER ITERATIONS 
       AND A TOTAL OF          9 INNER ITERATIONS.
    ------------------------------------------------

 NO OUTPUT CONTROL FOR STRESS PERIOD   33   TIME STEP    1
 
 SOLVING FOR HEAD 
                                                   Max.-Head-Change                         Max.-Flux-Residual
  Residual-Control   Outer-Iter.   Inner-Iter.     Column Row Layer    Maximum-Head-Change  Column Row Layer    Maximum-Flux-Residual          L2-NORM 
          0                 1           2             5    8     1       0.1366580972E+00       5    8    1         0.7453396985E+01      0.1731098066E+02
          0                 2           2             5    8     1      -0.3743931294E-01       5    8    1        -0.2074714327E+01      0.4839071087E+01
          0                 3           2             4    7     1      -0.6410922190E-01       4    7    1        -0.3440760381E+01      0.8402484522E+01
          0                 4           2             4    7     1       0.3586472266E-01       4    7    1         0.1978465741E+01      0.4843914667E+01
          0                 5           2             4    7     1      -0.1427436825E-02       4    7    1        -0.8094109149E-01      0.1982109713E+00
          0                 6           1             4    7     1       0.1761396985E-04       4    7    1         0.1026559406E-02      0.2514650483E-02

    ------------------------------------------------
       NWT REQUIRED            6 OUTER ITERATIONS 
       AND A TOTAL OF         11 INNER ITERATIONS.
    ------------------------------------------------

 NO OUTPUT CONTROL FOR STRESS PERIOD   33   TIME STEP    2
 
 SOLVING FOR HEAD 
                                                   Max.-Head-Change                         Max.-Flux-Residual
  Residual-Control   Outer-Iter.   Inner-Iter.     Column Row Layer    Maximum-Head-Change  Column Row Layer    Maximum-Flux-Residual          L2-NORM 
          0                 1           2             5    8     1       0.1320190641E+00       5    8    1         0.7194992505E+01      0.1686076936E+02
          0                 2           2             5    8     1      -0.7919838237E-01       5    8    1        -0.4372774462E+01      0.1047043207E+02
          0                 3           2             4    7     1      -0.5003026667E+00       4    7    1        -0.2684826308E+02      0.6573236323E+02
          0                 4           2             4    7     1       0.3407212662E-01       4    7    1         0.1879584406E+01      0.4602331245E+01
          0                 5           2             4    7     1      -0.1356090055E-02       4    7    1        -0.7689501204E-01      0.1883139017E+00
          0                 6           1             4    7     1       0.1673358131E-04       4    7    1         0.9752350388E-03      0.2388794820E-02

    ------------------------------------------------
       NWT REQUIRED            6 OUTER ITERATIONS 
       AND A TOTAL OF         11 INNER ITERATIONS.
    ------------------------------------------------

 NO OUTPUT CONTROL FOR STRESS PERIOD   33   TIME STEP    3
 
 SOLVING FOR HEAD 
                                                   Max.-Head-Change                         Max.-Flux-Residual
  Residual-Control   Outer-Iter.   Inner-Iter.     Column Row Layer    Maximum-Head-Change  Column Row Layer    Maximum-Flux-Residual          L2-NORM 
          0                 1           2             5    8     1       0.1425571192E+00       5    8    1         0.7773932392E+01      0.1808636313E+02
          0                 2           2             5    8     1      -0.1386666583E-01       5    8    1        -0.7773755993E+00      0.1808483130E+01
          0                 3           2             4    7     1      -0.6437146359E-02       4    7    1        -0.3458803613E+00      0.8186224686E+00
          0                 4           2             4    7     1       0.7243050013E-02       4    7    1         0.3995834408E+00      0.9763030608E+00
          0                 5           2             4    7     1      -0.2844429671E-03       4    7    1        -0.1613003532E-01      0.3941804050E-01
          0                 6           1             4    7     1       0.3509908403E-05       4    7    1         0.2045750812E-03      0.5001072030E-03

    ------------------------------------------------
       NWT REQUIRED            6 OUTER ITERATIONS 
       AND A TOTAL OF         11 INNER ITERATIONS.
    ------------------------------------------------

 NO OUTPUT CONTROL FOR STRESS PERIOD   33   TIME STEP    4
 
 SOLVING FOR HEAD 
                                                   Max.-Head-Change                         Max.-Flux-Residual
  Residual-Control   Outer-Iter.   Inner-Iter.     Column Row Layer    Maximum-Head-Change  Column Row Layer    Maximum-Flux-Residual          L2-NORM 
          0                 1           2             5    8     1       0.1359688307E+00       5    8    1         0.7407935741E+01      0.1742163033E+02
          0                 2           2             5    6     1      -0.1539797857E+00       5    8    1        -0.8484969077E+01      0.2051246640E+02
          0                 3           2             4    7     1       0.5598007045E-01       5    8    1         0.3109507656E+01      0.7595743762E+01
          0                 4           2             4    7     1      -0.2227516383E-02       5    8    1        -0.1271545670E+00      0.3106295364E+00
          0                 5           1             4    7     1       0.2746621529E-04       5    8    1         0.1609720712E-02      0.3936572477E-02

    ------------------------------------------------
       NWT REQUIRED            5 OUTER ITERATIONS 
       AND A TOTAL OF          9 INNER ITERATIONS.
    ------------------------------------------------

 NO OUTPUT CONTROL FOR STRESS PERIOD   33   TIME STEP    5
 
 SOLVING FOR HEAD 
                                                   Max.-Head-Change                         Max.-Flux-Residual
  Residual-Control   Outer-Iter.   Inner-Iter.     Column Row Layer    Maximum-Head-Change  Column Row Layer    Maximum-Flux-Residual          L2-NORM 
          0                 1           2             5    8     1       0.1326145561E+00       5    8    1         0.7220723001E+01      0.1710814293E+02
          0                 2           2             5    6     1      -0.1033327202E+00       5    8    1        -0.5698971169E+01      0.1372998891E+02
          0                 3           2             4    7     1      -0.1685999774E+00       4    7    1        -0.9047861019E+01      0.2213305540E+02
          0                 4           2             4    7     1       0.1148249161E-01       4    7    1         0.6334418880E+00      0.1549717724E+01
          0                 5           2             4    7     1      -0.4570082066E-03       4    7    1        -0.2591449015E-01      0.6341042583E-01
          0                 6           1             4    7     1       0.5639291623E-05       4    7    1         0.3286662104E-03      0.8043895733E-03

    ------------------------------------------------
       NWT REQUIRED            6 OUTER ITERATIONS 
       AND A TOTAL OF         11 INNER ITERATIONS.
    ------------------------------------------------

 NO OUTPUT CONTROL FOR STRESS PERIOD   33   TIME STEP    6
 
 SOLVING FOR HEAD 
                                                   Max.-Head-Change                         Max.-Flux-Residual
  Residual-Control   Outer-Iter.   Inner-Iter.     Column Row Layer    Maximum-Head-Change  Column Row Layer    Maximum-Flux-Residual          L2-NORM 
          0                 1           2             5    8     1       0.1344262418E+00       5    8    1         0.7318652745E+01      0.1735636321E+02
          0                 2           2             5    8     1      -0.1446783435E-01       5    8    1        -0.8084888154E+00      0.1902076019E+01
          0                 3           2             4    7     1      -0.2630335522E-01       4    7    1        -0.1411857102E+01      0.3449084729E+01
          0                 4           2             4    7     1       0.2738337662E-01       4    7    1         0.1510565994E+01      0.3698080744E+01
          0                 5           2             4   13     1      -0.1304979428E-03       4   13    1        -0.7677623680E-02      0.1371074960E-01
          0                 6           2             4    7     1      -0.3048251138E-03       5    6    1        -0.1728391762E-01      0.4540330276E-01
          0                 7           2             4    7     1      -0.5166980869E-02       4    7    1        -0.2929628287E+00      0.7229440572E+00
          0                 8           2             4    7     1       0.5321728271E-02       5    8    1         0.3101256034E+00      0.7596886967E+00
          0                 9           2             4    7     1      -0.1206632315E-01       5    8    1        -0.7226433244E+00      0.1780249976E+01
          0                10           2             4    7     1      -0.1439226280E-03       4    7    1        -0.8618613929E-02      0.2237179478E-01
                                                   Max.-Head-Change                         Max.-Flux-Residual
  Residual-Control   Outer-Iter.   Inner-Iter.     Column Row Layer    Maximum-Head-Change  Column Row Layer    Maximum-Flux-Residual          L2-NORM 
          0                11           2             4    7     1       0.3575270572E-03       5    8    1         0.2200362660E-01      0.5389767751E-01
          0                12           1             4    7     1       0.2395146044E-04       4    7    1         0.1473990129E-02      0.3610333973E-02

    ------------------------------------------------
       NWT REQUIRED           12 OUTER ITERATIONS 
       AND A TOTAL OF         23 INNER ITERATIONS.
    ------------------------------------------------

 NO OUTPUT CONTROL FOR STRESS PERIOD   33   TIME STEP    7
 
 SOLVING FOR HEAD 
                                                   Max.-Head-Change                         Max.-Flux-Residual
  Residual-Control   Outer-Iter.   Inner-Iter.     Column Row Layer    Maximum-Head-Change  Column Row Layer    Maximum-Flux-Residual          L2-NORM 
          0                 1           2             5    8     1       0.1288187833E+00       5    8    1         0.7007404276E+01      0.1679264992E+02
          0                 2           2             5    6     1      -0.6775426128E-01       5    8    1        -0.3740588390E+01      0.8991824152E+01
          0                 3           2             5    8     1       0.4122470461E-02       5    8    1         0.2340677723E+00      0.5612140780E+00
          0                 4           2             4    7     1      -0.1046687396E-02       5    8    1        -0.6005899815E-01      0.1464484727E+00
          0                 5           2             4    7     1      -0.4247963858E-02       4    7    1        -0.2408595244E+00      0.5899693985E+00
          0                 6           2             4    7     1      -0.1203694961E-02       5    8    1        -0.6825205042E-01      0.1671767924E+00
          0                 7           2             4    7     1      -0.1376159907E-02       5    8    1        -0.7802742493E-01      0.1911258634E+00
          0                 8           2             4    7     1      -0.1343468557E-01       5    8    1        -0.7617244395E+00      0.1865834298E+01
          0                 9           2             4    7     1      -0.1234685095E-02       5    8    1        -0.7001375818E-01      0.1714811447E+00
          0                10           2             4    7     1      -0.1390055812E-02       5    8    1        -0.7881270202E-01      0.1930497195E+00
                                                   Max.-Head-Change                         Max.-Flux-Residual
  Residual-Control   Outer-Iter.   Inner-Iter.     Column Row Layer    Maximum-Head-Change  Column Row Layer    Maximum-Flux-Residual          L2-NORM 
          0                11           2             4    7     1      -0.1368735938E-01       5    8    1        -0.7760274840E+00      0.1900869423E+01
          0                12           2             4    7     1       0.1697021241E-03       5    7    1         0.9893385514E-02      0.2423262858E-01
          0                13           1             4    7     1       0.2484325782E-05       5    8    1         0.1450211944E-03      0.3554278824E-03

    ------------------------------------------------
       NWT REQUIRED           13 OUTER ITERATIONS 
       AND A TOTAL OF         25 INNER ITERATIONS.
    ------------------------------------------------

 NO OUTPUT CONTROL FOR STRESS PERIOD   33   TIME STEP    8
 
 SOLVING FOR HEAD 
                                                   Max.-Head-Change                         Max.-Flux-Residual
  Residual-Control   Outer-Iter.   Inner-Iter.     Column Row Layer    Maximum-Head-Change  Column Row Layer    Maximum-Flux-Residual          L2-NORM 
          0                 1           2             5    8     1       0.4675516373E+00       5    8    1         0.2569425468E+02      0.2977062768E+02
          0                 2           2             5    6     1      -0.6711528259E-01       5    6    1        -0.3699482555E+01      0.8126751210E+01
          0                 3           2             5    6     1       0.3700492522E-02       5    6    1         0.2098046120E+00      0.4586778278E+00
          0                 4           2             4    7     1      -0.6362671134E-03       5    6    1        -0.3671727546E-01      0.8686109850E-01
          0                 5           2             5    8     1      -0.1555002047E-02       5    8    1        -0.8576558370E-01      0.1993349449E+00
          0                 6           2             5    8     1      -0.1354637822E-01       5    8    1        -0.7462246432E+00      0.1797911146E+01
          0                 7           2             5    8     1      -0.3567229942E-02       5    8    1        -0.2001245225E+00      0.2563709684E+00
          0                 8           2             5    8     1      -0.1470788031E-01       5    8    1        -0.8106648238E+00      0.1920118983E+01
          0                 9           2             5    8     1      -0.2281621883E-02       5    8    1        -0.1296572206E+00      0.1314417078E+00
          0                10           1             5    8     1      -0.3539284990E-03       5    8    1        -0.2006810255E-01      0.2007129858E-01
          0                11           1             5    8     1      -0.5489906428E-04       5    8    1        -0.3111902197E-02      0.3112523183E-02

    ------------------------------------------------
       NWT REQUIRED           11 OUTER ITERATIONS 
       AND A TOTAL OF         20 INNER ITERATIONS.
    ------------------------------------------------

 NO OUTPUT CONTROL FOR STRESS PERIOD   33   TIME STEP    9
 
 SOLVING FOR HEAD 
                                                   Max.-Head-Change                         Max.-Flux-Residual
  Residual-Control   Outer-Iter.   Inner-Iter.     Column Row Layer    Maximum-Head-Change  Column Row Layer    Maximum-Flux-Residual          L2-NORM 
          0                 1           2             5    8     1       0.2453853556E+00       5    8    1         0.1341571886E+02      0.2010899039E+02
          0                 2           2             5    6     1      -0.7003770477E-01       5    6    1        -0.3859803128E+01      0.9216188919E+01
          0                 3           2             4    7     1      -0.5094614706E+00       4    7    1        -0.2733953900E+02      0.6638172543E+02
          0                 4           2             5    8     1      -0.2396581988E+00       5    8    1        -0.1365124842E+02      0.1430608936E+02
          0                 5           2             5    8     1      -0.3176196582E-01       5    8    1        -0.1798805876E+01      0.1807831855E+01
          0                 6           1             5    8     1       0.2163429112E-02       5    8    1         0.1261665351E+00      0.1261823476E+00
          0                 7           1             5    8     1      -0.8612599930E-04       5    8    1        -0.5166143118E-02      0.5168702164E-02

    ------------------------------------------------
       NWT REQUIRED            7 OUTER ITERATIONS 
       AND A TOTAL OF         12 INNER ITERATIONS.
    ------------------------------------------------

 NO OUTPUT CONTROL FOR STRESS PERIOD   33   TIME STEP   10
 
 SOLVING FOR HEAD 
                                                   Max.-Head-Change                         Max.-Flux-Residual
  Residual-Control   Outer-Iter.   Inner-Iter.     Column Row Layer    Maximum-Head-Change  Column Row Layer    Maximum-Flux-Residual          L2-NORM 
          0                 1           2             5    8     1       0.4380256653E+00       5    8    1         0.2404468529E+02      0.2890670148E+02
          0                 2           2             5    8     1       0.5779363869E-01       5    8    1         0.3201066997E+01      0.3580526795E+01
          0                 3           2             4    7     1      -0.6366172988E-02       4    7    1        -0.3421600068E+00      0.7496747531E+00
          0                 4           2             4    7     1       0.7234442839E-02       4    7    1         0.3991019428E+00      0.9680285645E+00
          0                 5           2             5    8     1       0.9391224916E-03       5    8    1         0.5227838375E-01      0.6328700159E-01
          0                 6           1             5    8     1       0.1239235288E-03       5    8    1         0.6827799096E-02      0.6847845874E-02
          0                 7           1             5    8     1       0.1635255089E-04       5    8    1         0.9015700230E-03      0.9019229294E-03

    ------------------------------------------------
       NWT REQUIRED            7 OUTER ITERATIONS 
       AND A TOTAL OF         12 INNER ITERATIONS.
    ------------------------------------------------

 NO OUTPUT CONTROL FOR STRESS PERIOD   33   TIME STEP   11
 
 SOLVING FOR HEAD 
                                                   Max.-Head-Change                         Max.-Flux-Residual
  Residual-Control   Outer-Iter.   Inner-Iter.     Column Row Layer    Maximum-Head-Change  Column Row Layer    Maximum-Flux-Residual          L2-NORM 
          0                 1           2             5    6     1       0.1282736756E+00       5    6    1         0.6946119868E+01      0.1632184361E+02
          0                 2           2             5    7     1      -0.1545182315E+00       5    6    1        -0.8439005729E+01      0.2004599699E+02
          0                 3           2             4    7     1       0.5604217863E-01       5    6    1         0.3106637211E+01      0.7200063442E+01
          0                 4           2             4    7     1      -0.2229989342E-02       5    6    1        -0.1270393514E+00      0.2944512126E+00
          0                 5           1             4    7     1       0.2749670517E-04       5    6    1         0.1608405996E-02      0.3731722440E-02

    ------------------------------------------------
       NWT REQUIRED            5 OUTER ITERATIONS 
       AND A TOTAL OF          9 INNER ITERATIONS.
    ------------------------------------------------

 NO OUTPUT CONTROL FOR STRESS PERIOD   33   TIME STEP   12
 
 SOLVING FOR HEAD 
                                                   Max.-Head-Change                         Max.-Flux-Residual
  Residual-Control   Outer-Iter.   Inner-Iter.     Column Row Layer    Maximum-Head-Change  Column Row Layer    Maximum-Flux-Residual          L2-NORM 
          0                 1           2             5    6     1       0.1258479465E+00       5    6    1         0.6812580473E+01      0.1608601036E+02
          0                 2           2             5    7     1      -0.1033049423E+00       5    6    1        -0.5658209670E+01      0.1332269304E+02
          0                 3           2             5    8     1      -0.1817429608E+00       5    8    1        -0.1003522214E+02      0.2255911069E+02
          0                 4           2             5    8     1       0.1237743776E-01       5    8    1         0.7026887832E+00      0.1579553216E+01
          0                 5           2             5    8     1      -0.4926281562E-03       5    8    1        -0.2875271690E-01      0.6463132092E-01
          0                 6           1             5    8     1       0.6078825780E-05       5    8    1         0.3647270860E-03      0.8198773045E-03

    ------------------------------------------------
       NWT REQUIRED            6 OUTER ITERATIONS 
       AND A TOTAL OF         11 INNER ITERATIONS.
    ------------------------------------------------

 NO OUTPUT CONTROL FOR STRESS PERIOD   33   TIME STEP   13
 
 SOLVING FOR HEAD 
                                                   Max.-Head-Change                         Max.-Flux-Residual
  Residual-Control   Outer-Iter.   Inner-Iter.     Column Row Layer    Maximum-Head-Change  Column Row Layer    Maximum-Flux-Residual          L2-NORM 
          0                 1           2             5    6     1       0.1282279784E+00       5    6    1         0.6943015977E+01      0.1638189236E+02
          0                 2           2             5    6     1      -0.1386723793E-01       5    6    1        -0.7709254159E+00      0.1807585632E+01
          0                 3           2             4    7     1      -0.2624202593E-01       5    8    1        -0.1410227439E+01      0.3452980596E+01
          0                 4           2             4    7     1       0.2737973203E-01       5    8    1         0.1510472679E+01      0.3698344584E+01
          0                 5           2             4   13     1      -0.1304383345E-03       4   13    1        -0.7674113617E-02      0.1370976272E-01
          0                 6           2             4    7     1      -0.3047983506E-03       4    8    1        -0.1728178621E-01      0.4539551831E-01
          0                 7           2             4    7     1      -0.5166017130E-02       4    7    1        -0.2929008498E+00      0.7227864074E+00
          0                 8           2             4    7     1       0.5321165934E-02       5    8    1         0.3100850573E+00      0.7595893204E+00
          0                 9           2             4    7     1      -0.1205912356E-01       5    8    1        -0.7221940512E+00      0.1779133762E+01
          0                10           2             4    7     1      -0.9980628430E-04       4    7    1        -0.5976411198E-02      0.1634028848E-01

    ------------------------------------------------
       NWT REQUIRED           10 OUTER ITERATIONS 
       AND A TOTAL OF         20 INNER ITERATIONS.
    ------------------------------------------------

 NO OUTPUT CONTROL FOR STRESS PERIOD   33   TIME STEP   14
 
 SOLVING FOR HEAD 
                                                   Max.-Head-Change                         Max.-Flux-Residual
  Residual-Control   Outer-Iter.   Inner-Iter.     Column Row Layer    Maximum-Head-Change  Column Row Layer    Maximum-Flux-Residual          L2-NORM 
          0                 1           2             5    6     1       0.1235436590E+00       5    6    1         0.6685276640E+01      0.1591305283E+02
          0                 2           2             5    6     1      -0.6730751648E-01       5    6    1        -0.3707918823E+01      0.8340960410E+01
          0                 3           2             5    8     1      -0.1409753624E-01       5    8    1        -0.8061672486E+00      0.9549429936E+00
          0                 4           2             5    8     1      -0.7965577963E-02       5    8    1        -0.4500613018E+00      0.4683118022E+00
          0                 5           2             5    8     1      -0.5444173144E-02       5    8    1        -0.3064011470E+00      0.3533912671E+00
          0                 6           2             5    8     1      -0.1123214125E-01       5    8    1        -0.6229569667E+00      0.1215661441E+01
          0                 7           2             5    8     1      -0.5798039124E-02       5    8    1        -0.3267420102E+00      0.3617798991E+00
          0                 8           2             4    7     1      -0.1366560928E-02       4    8    1        -0.7775251363E-01      0.1821081660E+00
          0                 9           2             5    8     1      -0.1347052668E-01       5    7    1        -0.7445788504E+00      0.1822529611E+01
          0                10           2             4    7     1      -0.1252387164E-02       5    7    1        -0.7165321687E-01      0.1616651973E+00
                                                   Max.-Head-Change                         Max.-Flux-Residual
  Residual-Control   Outer-Iter.   Inner-Iter.     Column Row Layer    Maximum-Head-Change  Column Row Layer    Maximum-Flux-Residual          L2-NORM 
          0                11           2             5    8     1      -0.1436557193E-02       5    7    1        -0.8019648263E-01      0.1959555381E+00
          0                12           2             4    7     1      -0.1413643167E-02       5    7    1        -0.8021493465E-01      0.1945177340E+00
          0                13           2             5    8     1      -0.4098245702E-02       5    7    1        -0.2299573016E+00      0.5613855570E+00
          0                14           1             5    8     1       0.2795137521E-03       5    8    1         0.1621604316E-01      0.1743037878E-01
          0                15           1             5    8     1      -0.1115112955E-04       5    8    1        -0.6700980480E-03      0.6785464336E-03

    ------------------------------------------------
       NWT REQUIRED           15 OUTER ITERATIONS 
       AND A TOTAL OF         28 INNER ITERATIONS.
    ------------------------------------------------

 NO OUTPUT CONTROL FOR STRESS PERIOD   33   TIME STEP   15
 
 SOLVING FOR HEAD 
                                                   Max.-Head-Change                         Max.-Flux-Residual
  Residual-Control   Outer-Iter.   Inner-Iter.     Column Row Layer    Maximum-Head-Change  Column Row Layer    Maximum-Flux-Residual          L2-NORM 
          0                 1           2             5    8     1       0.7408771806E+00       5    8    1         0.4074390139E+02      0.4342598018E+02
          0                 2           2             5    8     1       0.1708008534E+00       5    8    1         0.9531990585E+01      0.1265772833E+02
          0                 3           2             4    7     1      -0.5095919673E+00       4    7    1        -0.2734574442E+02      0.6659155265E+02
          0                 4           2             5    8     1      -0.7202666883E-01       5    8    1        -0.4143367967E+01      0.5956897955E+01
          0                 5           2             5    8     1      -0.1561178008E-01       5    8    1        -0.8831172024E+00      0.9006188656E+00
          0                 6           2             5    8     1      -0.7845558042E-02       5    8    1        -0.4450320181E+00      0.4450357496E+00
          0                 7           1             5    8     1      -0.3942678990E-02       5    8    1        -0.2236265461E+00      0.2236273366E+00
          0                 8           1             5    8     1      -0.1981321865E-02       5    8    1        -0.1123785685E+00      0.1123789417E+00
          0                 9           1             5    8     1      -0.9956682413E-03       5    8    1        -0.5647274712E-01      0.5647293495E-01
          0                10           1             5    8     1      -0.5003458161E-03       5    8    1        -0.2837856391E-01      0.2837865829E-01
                                                   Max.-Head-Change                         Max.-Flux-Residual
  Residual-Control   Outer-Iter.   Inner-Iter.     Column Row Layer    Maximum-Head-Change  Column Row Layer    Maximum-Flux-Residual          L2-NORM 
          0                11           1             5    8     1      -0.2514327696E-03       5    8    1        -0.1426060440E-01      0.1426065183E-01
          0                12           1             5    8     1      -0.1263483200E-03       5    8    1        -0.7166076681E-02      0.7166100515E-02
          0                13           1             5    8     1      -0.6349112861E-04       5    8    1        -0.3600982087E-02      0.3600994067E-02

    ------------------------------------------------
       NWT REQUIRED           13 OUTER ITERATIONS 
       AND A TOTAL OF         19 INNER ITERATIONS.
    ------------------------------------------------

 NO OUTPUT CONTROL FOR STRESS PERIOD   33   TIME STEP   16
 
 SOLVING FOR HEAD 
                                                   Max.-Head-Change                         Max.-Flux-Residual
  Residual-Control   Outer-Iter.   Inner-Iter.     Column Row Layer    Maximum-Head-Change  Column Row Layer    Maximum-Flux-Residual          L2-NORM 
          0                 1           2             4    8     1       0.1340641437E+00       4    8    1         0.7195414406E+01      0.1686223815E+02
          0                 2           2             5    6     1      -0.1289287147E-01       4    8    1        -0.7195434534E+00      0.1718534807E+01
          0                 3           2             4    7     1      -0.6409636778E-02       4    7    1        -0.3443465627E+00      0.8204572490E+00
          0                 4           2             4    7     1       0.7329024961E-02       4    7    1         0.4043325029E+00      0.9608585877E+00
          0                 5           2             5    8     1       0.1018442980E-02       5    8    1         0.5987508694E-01      0.7009679575E-01
          0                 6           1             5    8     1       0.1762754292E-03       5    8    1         0.1027102182E-01      0.1028252984E-01
          0                 7           1             5    8     1       0.3050893757E-04       5    8    1         0.1778499701E-02      0.1778595315E-02

    ------------------------------------------------
       NWT REQUIRED            7 OUTER ITERATIONS 
       AND A TOTAL OF         12 INNER ITERATIONS.
    ------------------------------------------------

 NO OUTPUT CONTROL FOR STRESS PERIOD   33   TIME STEP   17
 
 SOLVING FOR HEAD 
                                                   Max.-Head-Change                         Max.-Flux-Residual
  Residual-Control   Outer-Iter.   Inner-Iter.     Column Row Layer    Maximum-Head-Change  Column Row Layer    Maximum-Flux-Residual          L2-NORM 
          0                 1           2             5    8     1       0.3705432301E+00       5    8    1         0.2027816612E+02      0.2581218152E+02
          0                 2           2             4    7     1      -0.1539149353E+00       4    8    1        -0.8436890839E+01      0.1879019325E+02
          0                 3           2             4    7     1       0.5594813373E-01       4    8    1         0.3098782837E+01      0.7378697566E+01
          0                 4           2             5    8     1       0.6037082061E-02       5    8    1         0.3368528371E+00      0.4386503497E+00
          0                 5           1             5    8     1       0.7580495914E-03       5    8    1         0.4176930282E-01      0.4195757641E-01
          0                 6           1             5    8     1       0.9518526086E-04       5    8    1         0.5248990860E-02      0.5251128704E-02

    ------------------------------------------------
       NWT REQUIRED            6 OUTER ITERATIONS 
       AND A TOTAL OF         10 INNER ITERATIONS.
    ------------------------------------------------

 NO OUTPUT CONTROL FOR STRESS PERIOD   33   TIME STEP   18
 
 SOLVING FOR HEAD 
                                                   Max.-Head-Change                         Max.-Flux-Residual
  Residual-Control   Outer-Iter.   Inner-Iter.     Column Row Layer    Maximum-Head-Change  Column Row Layer    Maximum-Flux-Residual          L2-NORM 
          0                 1           2             4    8     1       0.1342932407E+00       4    8    1         0.7240076012E+01      0.1605223765E+02
          0                 2           2             5    7     1      -0.1046925111E+00       4    8    1        -0.5699723130E+01      0.1350862502E+02
          0                 3           2             5    8     1      -0.1703187749E+00       5    8    1        -0.9388092628E+01      0.2227243692E+02
          0                 4           2             5    8     1       0.1159952536E-01       5    8    1         0.6573794052E+00      0.1559476549E+01
          0                 5           2             5    8     1      -0.4616662770E-03       5    8    1        -0.2689853857E-01      0.6380947078E-01
          0                 6           1             5    8     1       0.5696770104E-05       5    8    1         0.3412049396E-03      0.8094834467E-03

    ------------------------------------------------
       NWT REQUIRED            6 OUTER ITERATIONS 
       AND A TOTAL OF         11 INNER ITERATIONS.
    ------------------------------------------------

 NO OUTPUT CONTROL FOR STRESS PERIOD   33   TIME STEP   19
 
 SOLVING FOR HEAD 
                                                   Max.-Head-Change                         Max.-Flux-Residual
  Residual-Control   Outer-Iter.   Inner-Iter.     Column Row Layer    Maximum-Head-Change  Column Row Layer    Maximum-Flux-Residual          L2-NORM 
          0                 1           2             4    8     1       0.1566297714E+00       4    8    1         0.8443358713E+01      0.1683255424E+02
          0                 2           2             4    8     1       0.7666044501E-01       4    8    1         0.4166091177E+01      0.4463606548E+01
          0                 3           2             4    7     1      -0.2572679500E-01       5    8    1        -0.1430655159E+01      0.3224077230E+01
          0                 4           2             4    8     1       0.3212355622E-01       4    8    1         0.1701055893E+01      0.3781330097E+01
          0                 5           2             4    8     1       0.1715572426E-01       4    8    1         0.9306513283E+00      0.9307489304E+00
          0                 6           2             4    8     1       0.8226803492E-02       4    8    1         0.4467311838E+00      0.4486532685E+00
          0                 7           2             4    7     1      -0.5144882125E-02       5    7    1        -0.2947451975E+00      0.6684022538E+00
          0                 8           2             4    7     1       0.5332131038E-02       5    6    1         0.3113028202E+00      0.7452443578E+00
          0                 9           2             4    7     1      -0.1223778791E-01       5    6    1        -0.7346870182E+00      0.1757650722E+01
          0                10           2             4    8     1      -0.4483311136E-02       4    8    1        -0.2651235580E+00      0.2765538069E+00
                                                   Max.-Head-Change                         Max.-Flux-Residual
  Residual-Control   Outer-Iter.   Inner-Iter.     Column Row Layer    Maximum-Head-Change  Column Row Layer    Maximum-Flux-Residual          L2-NORM 
          0                11           2             4    8     1      -0.2301642846E-02       4    8    1        -0.1358535002E+00      0.1372328702E+00
          0                12           2             4    8     1      -0.1239408218E-02       4    8    1        -0.7304085622E-01      0.7305060728E-01
          0                13           2             4    8     1      -0.6674014460E-03       4    8    1        -0.3932292081E-01      0.3932318401E-01
          0                14           2             4    8     1      -0.3593819369E-03       4    8    1        -0.2117363549E-01      0.2117386932E-01
          0                15           2             4    8     1      -0.1935181369E-03       4    8    1        -0.1140128959E-01      0.1140142995E-01
          0                16           2             4    8     1      -0.1042037690E-03       4    8    1        -0.6139188882E-02      0.6139265977E-02
          0                17           1             4    8     1      -0.5611016006E-04       4    8    1        -0.3305709677E-02      0.3305751277E-02

    ------------------------------------------------
       NWT REQUIRED           17 OUTER ITERATIONS 
       AND A TOTAL OF         33 INNER ITERATIONS.
    ------------------------------------------------

 NO OUTPUT CONTROL FOR STRESS PERIOD   33   TIME STEP   20
 
 SOLVING FOR HEAD 
                                                   Max.-Head-Change                         Max.-Flux-Residual
  Residual-Control   Outer-Iter.   Inner-Iter.     Column Row Layer    Maximum-Head-Change  Column Row Layer    Maximum-Flux-Residual          L2-NORM 
          0                 1           2             5    8     1       0.5019525128E+00       5    8    1         0.2751418009E+02      0.3183417487E+02
          0                 2           2             5    8     1       0.1828352667E+00       5    8    1         0.1017219687E+02      0.1273037933E+02
          0                 3           2             5    8     1       0.2274585645E-01       5    8    1         0.1256212249E+01      0.1371309583E+01
          0                 4           2             5    8     1       0.2107630211E-02       5    8    1         0.1183094939E+00      0.1773115815E+00
          0                 5           2             4    8     1      -0.1561514951E-02       4    8    1        -0.8530311812E-01      0.1774637587E+00
          0                 6           2             4    8     1      -0.1646345055E-02       4    8    1        -0.8958968384E-01      0.1948555724E+00
          0                 7           2             4    8     1      -0.9004825943E-02       4    8    1        -0.4889147051E+00      0.1172693287E+01
          0                 8           2             4    8     1      -0.2718238453E-02       4    8    1        -0.1485676217E+00      0.2465437902E+00
          0                 9           2             4    8     1      -0.1792613537E-02       4    8    1        -0.9759251696E-01      0.2012567326E+00
          0                10           2             4    8     1      -0.1769878145E-02       4    8    1        -0.9625839015E-01      0.2098075816E+00
                                                   Max.-Head-Change                         Max.-Flux-Residual
  Residual-Control   Outer-Iter.   Inner-Iter.     Column Row Layer    Maximum-Head-Change  Column Row Layer    Maximum-Flux-Residual          L2-NORM 
          0                11           2             4    8     1      -0.1388149874E-01       4    8    1        -0.7535626032E+00      0.1819315334E+01
          0                12           2             4    8     1      -0.3670806349E-02       4    8    1        -0.2008216511E+00      0.3175868367E+00
          0                13           2             4    8     1      -0.2069188485E-02       4    8    1        -0.1127026237E+00      0.2258556257E+00
          0                14           2             4    8     1      -0.9536232821E-03       4    8    1        -0.5198831522E-01      0.9886808633E-01
          0                15           2             4    8     1      -0.1496480548E-03       4    8    1        -0.8229391625E-02      0.1158005901E-01
          0                16           1             4    8     1      -0.2347682557E-04       4    8    1        -0.1290439243E-02      0.1801276141E-02

    ------------------------------------------------
       NWT REQUIRED           16 OUTER ITERATIONS 
       AND A TOTAL OF         31 INNER ITERATIONS.
    ------------------------------------------------

 NO OUTPUT CONTROL FOR STRESS PERIOD   33   TIME STEP   21
 
 SOLVING FOR HEAD 
                                                   Max.-Head-Change                         Max.-Flux-Residual
  Residual-Control   Outer-Iter.   Inner-Iter.     Column Row Layer    Maximum-Head-Change  Column Row Layer    Maximum-Flux-Residual          L2-NORM 
          0                 1           2             4    8     1       0.4388098226E+00       4    8    1         0.2355147086E+02      0.3103340133E+02
          0                 2           2             4    8     1       0.1328078302E+00       4    8    1         0.7266166380E+01      0.1061563919E+02
          0                 3           2             4    7     1      -0.5093915181E+00       5    8    1        -0.2776692034E+02      0.6687179061E+02
          0                 4           2             4    8     1      -0.1796731416E+00       4    8    1        -0.9977944948E+01      0.1159872757E+02
          0                 5           2             4    8     1      -0.9223592751E-01       4    8    1        -0.5132021587E+01      0.5186077248E+01
          0                 6           2             4    8     1      -0.4725522625E-01       4    8    1        -0.2633338346E+01      0.2636601981E+01
          0                 7           2             4    8     1      -0.2419548634E-01       4    8    1        -0.1348850762E+01      0.1349170339E+01
          0                 8           2             4    8     1      -0.1238613198E-01       4    8    1        -0.6905819516E+00      0.6906428424E+00
          0                 9           2             4    8     1      -0.6340290163E-02       4    8    1        -0.3535092894E+00      0.3535295664E+00
          0                10           2             4    8     1      -0.3245423746E-02       4    8    1        -0.1809522114E+00      0.1809611365E+00
                                                   Max.-Head-Change                         Max.-Flux-Residual
  Residual-Control   Outer-Iter.   Inner-Iter.     Column Row Layer    Maximum-Head-Change  Column Row Layer    Maximum-Flux-Residual          L2-NORM 
          0                11           2             4    8     1      -0.1661221766E-02       4    8    1        -0.9262270671E-01      0.9262706031E-01
          0                12           2             4    8     1      -0.8503139078E-03       4    8    1        -0.4740951263E-01      0.4741170817E-01
          0                13           2             4    8     1      -0.4352380778E-03       4    8    1        -0.2426661202E-01      0.2426773073E-01
          0                14           2             4    8     1      -0.2227771046E-03       4    8    1        -0.1242077767E-01      0.1242134950E-01
          0                15           2             4    8     1      -0.1140276934E-03       4    8    1        -0.6357472927E-02      0.6357765499E-02
          0                16           1             4    8     1      -0.5836416086E-04       4    8    1        -0.3253991162E-02      0.3254140884E-02

    ------------------------------------------------
       NWT REQUIRED           16 OUTER ITERATIONS 
       AND A TOTAL OF         31 INNER ITERATIONS.
    ------------------------------------------------

 NO OUTPUT CONTROL FOR STRESS PERIOD   33   TIME STEP   22
 
 SOLVING FOR HEAD 
                                                   Max.-Head-Change                         Max.-Flux-Residual
  Residual-Control   Outer-Iter.   Inner-Iter.     Column Row Layer    Maximum-Head-Change  Column Row Layer    Maximum-Flux-Residual          L2-NORM 
          0                 1           2             4    8     1       0.3716582916E+00       4    8    1         0.2011511264E+02      0.3119051920E+02
          0                 2           2             5    7     1       0.1099893810E+00       5    7    1         0.6083407558E+01      0.6749364073E+01
          0                 3           2             5    7     1       0.6681238220E-02       5    7    1         0.3841032680E+00      0.7693074008E+00
          0                 4           2             5    7     1       0.7962886595E-02       5    7    1         0.4219305124E+00      0.9491314884E+00
          0                 5           2             4    8     1       0.1188139744E-02       4    8    1         0.6737277660E-01      0.1106415869E+00
          0                 6           2             4    8     1       0.2130464447E-03       4    8    1         0.1203720088E-01      0.1809063928E-01
          0                 7           1             4    8     1       0.3821620776E-04       4    8    1         0.2158802574E-02      0.3161609287E-02

    ------------------------------------------------
       NWT REQUIRED            7 OUTER ITERATIONS 
       AND A TOTAL OF         13 INNER ITERATIONS.
    ------------------------------------------------

 NO OUTPUT CONTROL FOR STRESS PERIOD   33   TIME STEP   23
 
 SOLVING FOR HEAD 
                                                   Max.-Head-Change                         Max.-Flux-Residual
  Residual-Control   Outer-Iter.   Inner-Iter.     Column Row Layer    Maximum-Head-Change  Column Row Layer    Maximum-Flux-Residual          L2-NORM 
          0                 1           2             5    6     1       0.1368466023E+00       5    6    1         0.7414629286E+01      0.1564940820E+02
          0                 2           2             4    7     1      -0.1553404342E+00       4    7    1        -0.8375721297E+01      0.1847135485E+02
          0                 3           2             4    7     1       0.5544123588E-01       4    7    1         0.3099718014E+01      0.5824332588E+01
          0                 4           2             5    6     1       0.4562855255E-02       5    6    1         0.2656499538E+00      0.3888646908E+00
          0                 5           2             5    6     1       0.7963399895E-03       5    6    1         0.4598451752E-01      0.5643462043E-01
          0                 6           2             5    6     1       0.1390089985E-03       5    6    1         0.8028750667E-02      0.9903588584E-02
          0                 7           1             5    6     1       0.2426985520E-04       5    6    1         0.1401566184E-02      0.1739036705E-02

    ------------------------------------------------
       NWT REQUIRED            7 OUTER ITERATIONS 
       AND A TOTAL OF         13 INNER ITERATIONS.
    ------------------------------------------------

 NO OUTPUT CONTROL FOR STRESS PERIOD   33   TIME STEP   24
 
 SOLVING FOR HEAD 
                                                   Max.-Head-Change                         Max.-Flux-Residual
  Residual-Control   Outer-Iter.   Inner-Iter.     Column Row Layer    Maximum-Head-Change  Column Row Layer    Maximum-Flux-Residual          L2-NORM 
          0                 1           2             4    8     1       0.6454514110E+00       4    8    1         0.3494649631E+02      0.3830257350E+02
          0                 2           2             4    8     1       0.1341207860E+00       4    8    1         0.7417999180E+01      0.1269595608E+02
          0                 3           2             5    6     1      -0.1825265579E+00       5    6    1        -0.1005155787E+02      0.2266794923E+02
          0                 4           2             5    7     1      -0.9098597095E-01       5    7    1        -0.5180028113E+01      0.5470942960E+01
          0                 5           2             5    7     1      -0.3217597963E-01       5    7    1        -0.1824519133E+01      0.1837329914E+01
          0                 6           2             5    7     1       0.2191630284E-02       5    7    1         0.1278826013E+00      0.1321153615E+00
          0                 7           1             4    8     1      -0.9234908861E-04       5    7    1        -0.5234749750E-02      0.7343544510E-02

    ------------------------------------------------
       NWT REQUIRED            7 OUTER ITERATIONS 
       AND A TOTAL OF         13 INNER ITERATIONS.
    ------------------------------------------------

 NO OUTPUT CONTROL FOR STRESS PERIOD   33   TIME STEP   25
 
 SOLVING FOR HEAD 
                                                   Max.-Head-Change                         Max.-Flux-Residual
  Residual-Control   Outer-Iter.   Inner-Iter.     Column Row Layer    Maximum-Head-Change  Column Row Layer    Maximum-Flux-Residual          L2-NORM 
          0                 1           2             5    7     1       0.7468555037E+00       5    7    1         0.4095616898E+02      0.4683558030E+02
          0                 2           2             5    7     1       0.2058055671E+00       5    7    1         0.1129552127E+02      0.1259287133E+02
          0                 3           2             5    7     1       0.7511608937E-01       5    7    1         0.4173269381E+01      0.5086428219E+01
          0                 4           2             5    7     1       0.6408148345E-01       5    7    1         0.3459726628E+01      0.4914180900E+01
          0                 5           2             5    7     1       0.3315230399E-01       5    7    1         0.1813214860E+01      0.2123291810E+01
          0                 6           2             5    6     1       0.9544496102E-02       5    6    1         0.5220341382E+00      0.6036023249E+00
          0                 7           2             4    7     1      -0.5155685698E-02       5    8    1        -0.2930811533E+00      0.6423291147E+00
          0                 8           2             4    7     1       0.5299864186E-02       4    6    1         0.3104133167E+00      0.7078771202E+00
          0                 9           2             4    7     1      -0.1209822251E-01       5    8    1        -0.7258109264E+00      0.1693346886E+01
          0                10           2             5    6     1      -0.5346347241E-02       5    6    1        -0.3176212309E+00      0.3899887713E+00
                                                   Max.-Head-Change                         Max.-Flux-Residual
  Residual-Control   Outer-Iter.   Inner-Iter.     Column Row Layer    Maximum-Head-Change  Column Row Layer    Maximum-Flux-Residual          L2-NORM 
          0                11           2             5    6     1      -0.2540635153E-02       5    6    1        -0.1522765375E+00      0.1572290592E+00
          0                12           2             5    6     1      -0.1350510418E-02       5    6    1        -0.8087026108E-01      0.8115004565E-01
          0                13           2             5    6     1      -0.7177017788E-03       5    6    1        -0.4297795129E-01      0.4301014525E-01
          0                14           2             5    6     1      -0.3813698229E-03       5    6    1        -0.2283845496E-01      0.2284340549E-01
          0                15           2             5    6     1      -0.2026421160E-03       5    6    1        -0.1213549549E-01      0.1213666441E-01
          0                16           2             5    6     1      -0.1076722003E-03       5    6    1        -0.6448104164E-02      0.6448537549E-02
          0                17           1             5    6     1      -0.5720994290E-04       5    6    1        -0.3426081120E-02      0.3426285518E-02

    ------------------------------------------------
       NWT REQUIRED           17 OUTER ITERATIONS 
       AND A TOTAL OF         33 INNER ITERATIONS.
    ------------------------------------------------

 NO OUTPUT CONTROL FOR STRESS PERIOD   33   TIME STEP   26
 
 SOLVING FOR HEAD 
                                                   Max.-Head-Change                         Max.-Flux-Residual
  Residual-Control   Outer-Iter.   Inner-Iter.     Column Row Layer    Maximum-Head-Change  Column Row Layer    Maximum-Flux-Residual          L2-NORM 
          0                 1           2             5    6     1       0.6601051274E+00       5    6    1         0.3631149054E+02      0.3844367686E+02
          0                 2           2             5    6     1       0.1970280385E+00       5    6    1         0.1096060183E+02      0.1318226026E+02
          0                 3           2             5    6     1       0.2542003475E-01       5    6    1         0.1404576061E+01      0.1583501230E+01
          0                 4           2             5    6     1       0.2452491025E-02       5    6    1         0.1377228179E+00      0.2307804730E+00
          0                 5           2             4    8     1      -0.1701170037E-02       4    8    1        -0.9286048298E-01      0.1889532580E+00
          0                 6           2             4    8     1      -0.1715865767E-02       4    8    1        -0.9355466229E-01      0.2076416471E+00
          0                 7           2             5    7     1      -0.1230770967E-01       4    8    1        -0.6678643232E+00      0.1615765819E+01
          0                 8           2             5    6     1      -0.3272112400E-02       5    6    1        -0.1827484092E+00      0.2527149186E+00
          0                 9           2             5    6     1      -0.1956601675E-02       5    6    1        -0.1085540155E+00      0.2027921846E+00
          0                10           2             5    6     1      -0.1392945651E-01       5    6    1        -0.7662079245E+00      0.1836070491E+01
                                                   Max.-Head-Change                         Max.-Flux-Residual
  Residual-Control   Outer-Iter.   Inner-Iter.     Column Row Layer    Maximum-Head-Change  Column Row Layer    Maximum-Flux-Residual          L2-NORM 
          0                11           2             5    6     1      -0.2169812690E-02       5    6    1        -0.1239814594E+00      0.1458970023E+00
          0                12           2             5    6     1      -0.3379782732E-03       5    6    1        -0.1912655301E-01      0.1938737052E-01
          0                13           1             5    6     1      -0.5264206467E-04       5    6    1        -0.2984152193E-02      0.2984515912E-02

    ------------------------------------------------
       NWT REQUIRED           13 OUTER ITERATIONS 
       AND A TOTAL OF         25 INNER ITERATIONS.
    ------------------------------------------------

 NO OUTPUT CONTROL FOR STRESS PERIOD   33   TIME STEP   27
 
 SOLVING FOR HEAD 
                                                   Max.-Head-Change                         Max.-Flux-Residual
  Residual-Control   Outer-Iter.   Inner-Iter.     Column Row Layer    Maximum-Head-Change  Column Row Layer    Maximum-Flux-Residual          L2-NORM 
          0                 1           2             4    7     1       0.3091615498E+00       4    7    1         0.1663815435E+02      0.2001634280E+02
          0                 2           2             4    6     1      -0.7062470644E-01       4    6    1        -0.3906289577E+01      0.7330081550E+01
          0                 3           2             4    7     1      -0.5178076436E+00       5    6    1        -0.2803608826E+02      0.6796741951E+02
          0                 4           2             4    7     1      -0.1469162700E+00       4    7    1        -0.8298991877E+01      0.9292956357E+01
          0                 5           2             4    7     1      -0.3126166181E-01       4    7    1        -0.1744897553E+01      0.1753727893E+01
          0                 6           1             4    7     1       0.2129706056E-02       4    7    1         0.1224556888E+00      0.1224641873E+00
          0                 7           1             4    7     1      -0.8480330799E-04       4    7    1        -0.5015276746E-02      0.5017740452E-02

    ------------------------------------------------
       NWT REQUIRED            7 OUTER ITERATIONS 
       AND A TOTAL OF         12 INNER ITERATIONS.
    ------------------------------------------------

 NO OUTPUT CONTROL FOR STRESS PERIOD   33   TIME STEP   28
 
 SOLVING FOR HEAD 
                                                   Max.-Head-Change                         Max.-Flux-Residual
  Residual-Control   Outer-Iter.   Inner-Iter.     Column Row Layer    Maximum-Head-Change  Column Row Layer    Maximum-Flux-Residual          L2-NORM 
          0                 1           2             4    7     1       0.4357977025E+00       4    7    1         0.2350956529E+02      0.2660156308E+02
          0                 2           2             4    7     1       0.5897805773E-01       4    7    1         0.3228681490E+01      0.3460245884E+01
          0                 3           2             4    8     1      -0.6315822801E-02       4    8    1        -0.3474857585E+00      0.7701622035E+00
          0                 4           2             4    7     1       0.7287490643E-02       4    8    1         0.3990718423E+00      0.9687556249E+00
          0                 5           2             4    7     1       0.9904642239E-03       4    7    1         0.5455301325E-01      0.6511626191E-01
          0                 6           1             4    7     1       0.1340509385E-03       4    7    1         0.7281726494E-02      0.7301935433E-02
          0                 7           1             4    7     1       0.1814265453E-04       4    7    1         0.9863854898E-03      0.9867640619E-03

    ------------------------------------------------
       NWT REQUIRED            7 OUTER ITERATIONS 
       AND A TOTAL OF         12 INNER ITERATIONS.
    ------------------------------------------------

 NO OUTPUT CONTROL FOR STRESS PERIOD   33   TIME STEP   29
 
 SOLVING FOR HEAD 
                                                   Max.-Head-Change                         Max.-Flux-Residual
  Residual-Control   Outer-Iter.   Inner-Iter.     Column Row Layer    Maximum-Head-Change  Column Row Layer    Maximum-Flux-Residual          L2-NORM 
          0                 1           2             4    6     1       0.1406595737E+00       4    6    1         0.7546169628E+01      0.1406986233E+02
          0                 2           2             4    6     1      -0.1556225733E+00       4    6    1        -0.8499451801E+01      0.1964957645E+02
          0                 3           2             4    6     1       0.5519797819E-01       4    6    1         0.3111517387E+01      0.7049627131E+01
          0                 4           2             4    7     1       0.4527786599E-02       4    7    1         0.2656781020E+00      0.3880376982E+00
          0                 5           1             4    7     1       0.8231151274E-03       4    7    1         0.4725091126E-01      0.4739749856E-01
          0                 6           1             4    7     1       0.1496289858E-03       4    7    1         0.8599903106E-02      0.8600633877E-02
          0                 7           1             4    7     1       0.2719894848E-04       4    7    1         0.1563395469E-02      0.1563450749E-02

    ------------------------------------------------
       NWT REQUIRED            7 OUTER ITERATIONS 
       AND A TOTAL OF         11 INNER ITERATIONS.
    ------------------------------------------------

 NO OUTPUT CONTROL FOR STRESS PERIOD   33   TIME STEP   30



 STREAM LISTING     PERIOD     33   STEP       30

 LAYER ROW COL. STREAM  RCH.  FLOW INTO     FLOW TO   FLOW OUT OF   OVRLND.     DIRECT     STREAM       STREAM     STREAM     STREAM   STREAMBED  STREAMBED
                SEG.NO.  NO.  STRM. RCH.    AQUIFER    STRM. RCH.    RUNOFF     PRECIP       ET          HEAD       DEPTH      WIDTH   CONDCTNC.   GRADIENT

   1    1    1     1     1    2.2874E+01  2.3513E-01   2.2639E+01  0.000E+00  0.000E+00  0.000E+00  1.09419E+03  1.146E+00  1.260E+01  5.672E-02  1.382E+00
   1    2    2     1     2    2.2639E+01  3.6351E-01   2.2276E+01  0.000E+00  0.000E+00  0.000E+00  1.08920E+03  1.141E+00  1.254E+01  8.778E-02  1.380E+00
   1    3    3     1     3    2.2276E+01  3.0939E-01   2.1966E+01  0.000E+00  0.000E+00  0.000E+00  1.08355E+03  1.136E+00  1.247E+01  7.481E-02  1.379E+00
   1    3    4     1     4    2.1966E+01  2.8439E-01   2.1682E+01  0.000E+00  0.000E+00  0.000E+00  1.07854E+03  1.131E+00  1.240E+01  6.885E-02  1.377E+00
   1    4    5     2     1    1.9682E+01  3.1521E-01   1.9367E+01  0.000E+00  0.000E+00  0.000E+00  1.07298E+03  1.041E+00  1.200E+01  7.800E-02  1.347E+00
   1    5    6     2     2    1.9367E+01  2.4193E-01   1.9125E+01  0.000E+00  0.000E+00  0.000E+00  1.06754E+03  1.032E+00  1.200E+01  6.000E-02  1.344E+00
   1    6    6     2     3    1.9125E+01  2.4146E-01   1.8883E+01  0.000E+00  0.000E+00  0.000E+00  1.06282E+03  1.024E+00  1.200E+01  6.000E-02  1.341E+00
   1    7    6     2     4    1.8883E+01  2.4099E-01   1.8642E+01  0.000E+00  0.000E+00  0.000E+00  1.05809E+03  1.017E+00  1.200E+01  6.000E-02  1.339E+00
   1    8    6     2     5    1.8642E+01  2.4052E-01   1.8402E+01  0.000E+00  0.000E+00  0.000E+00  1.05337E+03  1.009E+00  1.200E+01  6.000E-02  1.336E+00
   1    3    5     3     1    2.0000E+00  2.8252E-01   1.7175E+00  0.000E+00  0.000E+00  0.000E+00  1.07555E+03  1.909E+00  9.636E+00  7.227E-02  1.955E+00
   1    3    6     3     2    1.7175E+00  2.4905E-01   1.4684E+00  0.000E+00  0.000E+00  0.000E+00  1.07264E+03  1.727E+00  8.909E+00  6.682E-02  1.864E+00
   1    3    7     3     3    1.4684E+00  1.9718E-01   1.2712E+00  0.000E+00  0.000E+00  0.000E+00  1.06987E+03  1.555E+00  8.218E+00  5.547E-02  1.777E+00
   1    4    8     3     4    1.2712E+00  2.2567E-01   1.0456E+00  0.000E+00  0.000E+00  0.000E+00  1.06682E+03  1.364E+00  7.455E+00  6.709E-02  1.682E+00
   1    5    8     3     5    1.0456E+00  1.5790E-01   8.8768E-01  0.000E+00  0.000E+00  0.000E+00  1.06362E+03  1.164E+00  6.655E+00  4.991E-02  1.582E+00
   1    6    8     3     6    8.8768E-01  5.5980E-02   8.3170E-01  0.000E+00  0.000E+00  0.000E+00  1.06158E+03  1.036E+00  6.145E+00  1.844E-02  1.518E+00
   1    5   10     4     1    1.0000E+01  9.0919E-02   9.9091E+00  0.000E+00  0.000E+00  0.000E+00  1.07836E+03  6.368E-01  1.000E+01  2.500E-02  1.212E+00
   1    5    9     4     2    9.9091E+00  1.8158E-01   9.7275E+00  0.000E+00  0.000E+00  0.000E+00  1.07154E+03  6.315E-01  1.000E+01  5.000E-02  1.211E+00
   1    6    8     4     3    9.7275E+00  1.2689E-01   9.6006E+00  0.000E+00  0.000E+00  0.000E+00  1.06381E+03  6.256E-01  1.000E+01  3.500E-02  1.209E+00
   1    6    8     5     1    1.0432E+01  2.2686E-01   1.0205E+01  0.000E+00  0.000E+00  0.000E+00  1.05868E+03  6.790E-01  1.542E+01  6.166E-02  1.226E+00
   1    7    7     5     2    1.0205E+01  2.7894E-01   9.9265E+00  0.000E+00  0.000E+00  0.000E+00  1.05417E+03  6.732E-01  1.519E+01  7.594E-02  1.224E+00
   1    8    7     5     3    9.9265E+00  1.9221E-01   9.7343E+00  0.000E+00  0.000E+00  0.000E+00  1.04992E+03  6.676E-01  1.497E+01  5.241E-02  1.223E+00
   1    8    6     5     4    9.7343E+00  1.3577E-01   9.5985E+00  0.000E+00  0.000E+00  0.000E+00  1.04691E+03  6.637E-01  1.482E+01  3.706E-02  1.221E+00
   1    9    6     6     1    9.5985E+00  2.2097E-01   9.3776E+00  0.000E+00  0.000E+00  0.000E+00  1.04341E+03  6.828E-01  1.200E+01  6.000E-02  1.228E+00
   1   10    7     6     2    9.3776E+00  2.2039E-01   9.1572E+00  0.000E+00  0.000E+00  0.000E+00  1.03885E+03  6.732E-01  1.200E+01  6.000E-02  1.224E+00
   1   11    7     6     3    9.1572E+00  2.1981E-01   8.9374E+00  0.000E+00  0.000E+00  0.000E+00  1.03430E+03  6.636E-01  1.200E+01  6.000E-02  1.221E+00
   1   12    7     6     4    8.9374E+00  2.1923E-01   8.7181E+00  0.000E+00  0.000E+00  0.000E+00  1.02974E+03  6.539E-01  1.200E+01  6.000E-02  1.218E+00
   1   13    7     6     5    8.7181E+00  7.3702E-04   8.7174E+00  0.000E+00  0.000E+00  0.000E+00  1.02656E+03  6.490E-01  1.200E+01  2.400E-02  1.024E-02
   1   14    9     7     1    1.5000E+02  1.3926E+00   1.4861E+02  0.000E+00  0.000E+00  0.000E+00  1.03987E+03  2.288E+00  5.529E+01  5.593E-01  8.300E-01
   1   13    8     7     2    1.4861E+02  2.0127E+00   1.4659E+02  0.000E+00  0.000E+00  0.000E+00  1.03478E+03  2.279E+00  5.525E+01  6.147E-01  1.091E+00
   1   13    7     7     3    1.4659E+02  1.7646E+00   1.4483E+02  0.000E+00  0.000E+00  0.000E+00  1.02969E+03  2.268E+00  5.521E+01  5.584E-01  1.053E+00
   1   13    6     8     1    1.5355E+02  1.1139E+00   1.5243E+02  0.000E+00  0.000E+00  0.000E+00  1.02471E+03  2.838E+00  4.115E+01  4.193E-01  8.855E-01
   1   13    5     8     2    1.5243E+02  3.6622E-01   1.5207E+02  0.000E+00  0.000E+00  0.000E+00  1.01846E+03  2.833E+00  4.107E+01  4.185E-01  2.917E-01
   1   13    4     8     3    1.5207E+02 -1.8091E+00   1.5388E+02  0.000E+00  0.000E+00  0.000E+00  1.01221E+03  2.838E+00  4.115E+01  4.193E+00 -1.438E-01
   1   13    3     8     4    1.5388E+02 -3.3522E+00   1.5723E+02  0.000E+00  0.000E+00  0.000E+00  1.00598E+03  2.855E+00  4.140E+01  4.219E+00 -2.648E-01
   1   13    2     8     5    1.5723E+02 -2.5486E+00   1.5978E+02  0.000E+00  0.000E+00  0.000E+00  9.99751E+02  2.876E+00  4.170E+01  4.249E+00 -1.999E-01
   1   13    1     8     6    1.5978E+02 -1.9881E+00   1.6177E+02  0.000E+00  0.000E+00  0.000E+00  9.94766E+02  2.891E+00  4.192E+01  2.563E+00 -2.586E-01
   1    8    6     9     1    1.8402E+01  0.0000E+00   1.8402E+01  0.000E+00  0.000E+00  0.000E+00  1.08202E+03  3.267E+00  4.000E+00  0.000E+00  2.089E+00
   1    8    5     9     2    1.8402E+01  0.0000E+00   1.8402E+01  0.000E+00  0.000E+00  0.000E+00  1.08152E+03  3.267E+00  4.000E+00  0.000E+00  2.089E+00





UNSATURATED ZONE PACKAGE VOLUMETRIC BUDGET FOR  TIME STEP    30 STRESS PERIOD   33
  ------------------------------------------------------------------------------



     CUMULATIVE VOLUMES      L**3       RATES FOR THIS TIME STEP      L**3/T
     ------------------                 ------------------------

           IN:                                      IN:
           ---                                      ---
        INFILTRATION =  1712413863.2523          INFILTRATION =          50.6192

          OUT:                                     OUT:
          ----                                     ----
              UZF ET =  1245145225.5830                UZF ET =          49.5675
        UZF RECHARGE =    40384707.3977          UZF RECHARGE =           0.3923

            IN - OUT =   426883930.2716              IN - OUT =           0.6594

          STORAGE:                                 STORAGE:
          --------                                 --------
      STORAGE CHANGE =   426888497.2009        STORAGE CHANGE =           0.6594

 PERCENT DISCREPANCY IS DIFFERENCE BETWEEN IN-OUT MINUS CHANGE IN STORAGE
 DIVIDED BY THE AVERAGE OF IN AND OUT TIMES 100

 PERCENT DISCREPANCY =          -0.00     PERCENT DISCREPANCY =           0.00






1
  VOLUMETRIC BUDGET FOR AGRICULTURAL FIELDS AT  END OF TIME STEP   30, STRESS PERIOD  33
  ------------------------------------------------------------------------------

     CUMULATIVE VOLUMES      L**3       RATES FOR THIS TIME STEP      L**3/T
     ------------------                 ------------------------

           IN:                                      IN:
           ---                                      ---
               AG WELLS  =  1101049344.0000                 AG WELLS  =          31.3696
      DIVERSION SEGMENTS =   540159104.0000        DIVERSION SEGMENTS =          18.4018
       IRRIGATION PONDS  =           0.0000         IRRIGATION PONDS  =           0.0000
           GW IRRIGATION =           0.0000             GW IRRIGATION =           0.0000
           SW IRRIGATION =           0.0000             SW IRRIGATION =           0.0000
        SYSTEM LOSSES GW =           0.0000          SYSTEM LOSSES GW =           0.0000
        SYSTEM LOSSES SW =           0.0000          SYSTEM LOSSES SW =           0.0000

                TOTAL IN =  1641208448.0000                  TOTAL IN =          49.7714

          OUT:                                     OUT:
          ----                                     ----
               AG WELLS  =           0.0000                 AG WELLS  =           0.0000
      DIVERSION SEGMENTS =           0.0000        DIVERSION SEGMENTS =           0.0000
       IRRIGATION PONDS  =           0.0000         IRRIGATION PONDS  =           0.0000
           GW IRRIGATION =  1101049344.0000             GW IRRIGATION =          31.3696
           SW IRRIGATION =   540169728.0000             SW IRRIGATION =          18.4022
        SYSTEM LOSSES GW =           0.0000          SYSTEM LOSSES GW =           0.0000
        SYSTEM LOSSES SW =           0.0000          SYSTEM LOSSES SW =           0.0000

               TOTAL OUT =  1641219072.0000                 TOTAL OUT =          49.7717

                IN - OUT =      -10624.0000                  IN - OUT =      -3.6621E-04

     PERCENT DISCREPANCY =          -0.00         PERCENT DISCREPANCY =          -0.00



1
  VOLUMETRIC BUDGET FOR ENTIRE MODEL AT END OF TIME STEP   30, STRESS PERIOD  33
  ------------------------------------------------------------------------------

     CUMULATIVE VOLUMES      L**3       RATES FOR THIS TIME STEP      L**3/T
     ------------------                 ------------------------

           IN:                                      IN:
           ---                                      ---
             STORAGE     =  1559622272.0000               STORAGE     =          32.1974
       CONSTANT HEAD     =           0.0000         CONSTANT HEAD     =           0.0000
     HEAD DEP BOUNDS     =    24298950.0000       HEAD DEP BOUNDS     =           0.2896
      STREAM LEAKAGE     =  1006676416.0000        STREAM LEAKAGE     =          12.4051
        UZF RECHARGE     =    40384708.0000          UZF RECHARGE     =           0.3923
               GW ET     =           0.0000                 GW ET     =           0.0000
     SURFACE LEAKAGE     =           0.0000       SURFACE LEAKAGE     =           0.0000
           AG WELLS      =           0.0000             AG WELLS      =           0.0000

                TOTAL IN =  2630982400.0000                  TOTAL IN =          45.2845

          OUT:                                     OUT:
          ----                                     ----
             STORAGE     =   669478080.0000               STORAGE     =           3.9300
       CONSTANT HEAD     =           0.0000         CONSTANT HEAD     =           0.0000
     HEAD DEP BOUNDS     =    24251378.0000       HEAD DEP BOUNDS     =           0.2866
      STREAM LEAKAGE     =   836212672.0000        STREAM LEAKAGE     =           9.6980
        UZF RECHARGE     =           0.0000          UZF RECHARGE     =           0.0000
               GW ET     =           0.0000                 GW ET     =           0.0000
     SURFACE LEAKAGE     =           0.0000       SURFACE LEAKAGE     =           0.0000
           AG WELLS      =  1101049344.0000             AG WELLS      =          31.3696

               TOTAL OUT =  2630991360.0000                 TOTAL OUT =          45.2842

                IN - OUT =       -8960.0000                  IN - OUT =       2.8992E-04

     PERCENT DISCREPANCY =          -0.00         PERCENT DISCREPANCY =           0.00






         TIME SUMMARY AT END OF TIME STEP   30 IN STRESS PERIOD   33
                    SECONDS     MINUTES      HOURS       DAYS        YEARS
                    -----------------------------------------------------------
   TIME STEP LENGTH  87667.      1461.1      24.352      1.0147     2.77799E-03
 STRESS PERIOD TIME 2.63000E+06  43833.      730.56      30.440     8.33397E-02
         TOTAL TIME 8.42463E+07 1.40410E+06  23402.      975.07      2.6696    
1
1
                            STRESS PERIOD NO.   34, LENGTH =   2630000.    
                            -----------------------------------------------

                              NUMBER OF TIME STEPS =    30

                               MULTIPLIER FOR DELT =     1.000

                            INITIAL TIME STEP SIZE =   87666.66    

 REUSING NON-PARAMETER GHB CELLS FROM LAST STRESS PERIOD

      2 GHB CELLS

 REUSING STREAM SEGMENT DATA FROM LAST STRESS PERIOD



            AREAL INFILTRATION RATE
 READING ON UNIT   19 WITH FORMAT: (FREE)              

            1           2           3           4           5           6           7           8           9          10
 ........................................................................................................................
   1   1.0000E-10  2.0000E-10   0.000       0.000       0.000       0.000       0.000       0.000       0.000       0.000    
   2   2.0000E-10  1.0000E-10  2.0000E-10   0.000       0.000      8.0000E-10  8.0000E-10  5.0000E-10   0.000       0.000    
   3    0.000      5.0000E-10  1.0000E-10  1.0000E-10  8.0000E-10  8.0000E-10  5.0000E-10  5.0000E-10   0.000       0.000    
   4   8.0000E-10  5.0000E-10  1.0000E-10  1.0000E-10  1.0000E-10  1.0000E-10  1.0000E-10  1.0000E-10  2.0000E-10   0.000    
   5   8.0000E-10  5.0000E-10  1.0000E-10  1.0000E-10  1.0000E-10  1.0000E-10  1.0000E-10  1.0000E-10  1.0000E-10  1.0000E-10
   6   8.0000E-10  5.0000E-10  5.0000E-10  2.0000E-10  2.0000E-10  1.0000E-10  1.0000E-10  1.0000E-10  1.0000E-10  5.0000E-10
   7   8.0000E-10  5.0000E-10  5.0000E-10  2.0000E-10  2.0000E-10  1.0000E-10  1.0000E-10  2.0000E-10  2.0000E-10   0.000    
   8    0.000      5.0000E-10  5.0000E-10  2.0000E-10  2.0000E-10  1.0000E-10  1.0000E-10  2.0000E-10  5.0000E-10   0.000    
   9    0.000      5.0000E-10  5.0000E-10  2.0000E-10  2.0000E-10  1.0000E-10  1.0000E-10  2.0000E-10  5.0000E-10   0.000    
  10    0.000      5.0000E-10  5.0000E-10  2.0000E-10  2.0000E-10  1.0000E-10  1.0000E-10  2.0000E-10  5.0000E-10  8.0000E-10
  11    0.000      1.0000E-10  1.0000E-10  1.0000E-10  1.0000E-10  1.0000E-10  1.0000E-10  2.0000E-10  5.0000E-10   0.000    
  12   1.0000E-10  1.0000E-10  1.0000E-10  1.0000E-10  1.0000E-10  1.0000E-10  1.0000E-10  1.0000E-10  2.0000E-10   0.000    
  13   1.0000E-10  1.0000E-10  2.0000E-10  2.0000E-10  2.0000E-10  2.0000E-10  2.0000E-10  1.0000E-10  1.0000E-10   0.000    
  14    0.000      2.0000E-10  5.0000E-10  5.0000E-10  5.0000E-10  5.0000E-10  5.0000E-10  2.0000E-10  1.0000E-10   0.000    
  15    0.000       0.000      8.0000E-10  8.0000E-10  8.0000E-10  8.0000E-10   0.000       0.000       0.000       0.000    

                  ET RATE =  7.500000E-08

 USING ET EXTINCTION DEPTH FROM PREVIOUS STRESS PERIOD. CURRENT PERIOD IS:      34

 USING EXTINCTION WATER CONTENT FROM PREVIOUS STRESS PERIOD. CURRENT PERIOD IS:      34

 USING AIR ENTRY PRESSURE FROM PREVIOUS STRESS PERIOD. CURRENT PERIOD IS:      34

 USING ROOT PRESSURE HEAD FROM PREVIOUS STRESS PERIOD. CURRENT PERIOD IS:      34

 USING ROOT ACTIVITY FROM PREVIOUS STRESS PERIOD. CURRENT PERIOD IS:      34

 PROCESSING AG STRESS PERIOD DATA

 READING AG STRESS PERIOD DATA

 READING IRRIGATION SEGMENT

 READING IRRIGATION WELL

 READING SUPPLEMENTAL WELL

 NO IRRPOND OR REUSING IRRPOND DATA FROM LAST STRESS PERIOD

 END PROCESSING AG STRESS PERIOD DATA OPTIONS
 
 SOLVING FOR HEAD 
                                                   Max.-Head-Change                         Max.-Flux-Residual
  Residual-Control   Outer-Iter.   Inner-Iter.     Column Row Layer    Maximum-Head-Change  Column Row Layer    Maximum-Flux-Residual          L2-NORM 
          0                 1           2             4    6     1       0.1381563759E+00       4    6    1         0.7408998171E+01      0.1394811096E+02
          0                 2           2             4    7     1       0.1660953826E-01       4    7    1         0.9245524612E+00      0.1543333934E+01
          0                 3           2             4    7     1       0.2247953543E-02       4    7    1         0.1208217955E+00      0.1488667835E+00
          0                 4           1             4    7     1       0.3042375688E-03       4    7    1         0.1660830048E-01      0.1695971602E-01
          0                 5           1             4    7     1       0.4117546417E-04       4    7    1         0.2238577304E-02      0.2239745572E-02

    ------------------------------------------------
       NWT REQUIRED            5 OUTER ITERATIONS 
       AND A TOTAL OF          8 INNER ITERATIONS.
    ------------------------------------------------

 NO OUTPUT CONTROL FOR STRESS PERIOD   34   TIME STEP    1
 
 SOLVING FOR HEAD 
                                                   Max.-Head-Change                         Max.-Flux-Residual
  Residual-Control   Outer-Iter.   Inner-Iter.     Column Row Layer    Maximum-Head-Change  Column Row Layer    Maximum-Flux-Residual          L2-NORM 
          0                 1           2             4    6     1       0.1343314409E+00       4    6    1         0.7202100952E+01      0.1358670798E+02
          0                 2           2             4    7     1       0.1616992995E-01       4    7    1         0.9003266468E+00      0.1503374991E+01
          0                 3           2             5    7     1      -0.3391434722E-01       5    8    1        -0.1842969193E+01      0.4487458305E+01
          0                 4           2             5    7     1       0.3574656193E-01       5    8    1         0.1998725158E+01      0.4737247557E+01
          0                 5           2             4    7     1       0.5242761524E-02       4    7    1         0.3048921035E+00      0.3555182514E+00
          0                 6           1             4    7     1       0.9530694385E-03       4    7    1         0.5474669308E-01      0.5480289992E-01
          0                 7           1             4    7     1       0.1732486437E-03       4    7    1         0.9958135021E-02      0.9958690310E-02
          0                 8           1             4    7     1       0.3149171987E-04       4    7    1         0.1810184853E-02      0.1810246319E-02

    ------------------------------------------------
       NWT REQUIRED            8 OUTER ITERATIONS 
       AND A TOTAL OF         13 INNER ITERATIONS.
    ------------------------------------------------

 NO OUTPUT CONTROL FOR STRESS PERIOD   34   TIME STEP    2
 
 SOLVING FOR HEAD 
                                                   Max.-Head-Change                         Max.-Flux-Residual
  Residual-Control   Outer-Iter.   Inner-Iter.     Column Row Layer    Maximum-Head-Change  Column Row Layer    Maximum-Flux-Residual          L2-NORM 
          0                 1           2             4    6     1       0.1306457356E+00       4    6    1         0.7002754014E+01      0.1323103881E+02
          0                 2           2             4    7     1       0.1574743731E-01       4    7    1         0.8770302796E+00      0.1464284605E+01
          0                 3           2             5    7     1      -0.3391867963E-01       5    8    1        -0.1843942283E+01      0.4490014200E+01
          0                 4           2             5    7     1       0.3574675129E-01       5    8    1         0.1998794721E+01      0.4737195630E+01
          0                 5           2             4    7     1       0.5241132112E-02       4    7    1         0.3048014534E+00      0.3554429850E+00
          0                 6           1             4    7     1       0.9527630175E-03       4    7    1         0.5472955039E-01      0.5478577688E-01
          0                 7           1             4    7     1       0.1731910856E-03       4    7    1         0.9954912969E-02      0.9955468348E-02
          0                 8           1             4    7     1       0.3148092006E-04       4    7    1         0.1809579805E-02      0.1809641259E-02

    ------------------------------------------------
       NWT REQUIRED            8 OUTER ITERATIONS 
       AND A TOTAL OF         13 INNER ITERATIONS.
    ------------------------------------------------

 NO OUTPUT CONTROL FOR STRESS PERIOD   34   TIME STEP    3
 
 SOLVING FOR HEAD 
                                                   Max.-Head-Change                         Max.-Flux-Residual
  Residual-Control   Outer-Iter.   Inner-Iter.     Column Row Layer    Maximum-Head-Change  Column Row Layer    Maximum-Flux-Residual          L2-NORM 
          0                 1           2             4    6     1       0.1270935934E+00       4    6    1         0.6810650450E+01      0.1289189500E+02
          0                 2           2             4    7     1       0.1534107706E-01       4    7    1         0.8546110089E+00      0.1426911335E+01
          0                 3           2             5    7     1      -0.3392347518E-01       5    8    1        -0.1844849270E+01      0.4492636044E+01
          0                 4           2             5    7     1       0.3574697177E-01       5    8    1         0.1998859643E+01      0.4737147452E+01
          0                 5           2             4    7     1       0.5239564255E-02       4    7    1         0.3047142995E+00      0.3553706698E+00
          0                 6           1             4    7     1       0.9524679654E-03       4    7    1         0.5471305287E-01      0.5476929820E-01
          0                 7           1             4    7     1       0.1731356273E-03       4    7    1         0.9951810079E-02      0.9952365588E-02
          0                 8           1             4    7     1       0.3147050733E-04       4    7    1         0.1808996732E-02      0.1809058277E-02

    ------------------------------------------------
       NWT REQUIRED            8 OUTER ITERATIONS 
       AND A TOTAL OF         13 INNER ITERATIONS.
    ------------------------------------------------

 NO OUTPUT CONTROL FOR STRESS PERIOD   34   TIME STEP    4
 
 SOLVING FOR HEAD 
                                                   Max.-Head-Change                         Max.-Flux-Residual
  Residual-Control   Outer-Iter.   Inner-Iter.     Column Row Layer    Maximum-Head-Change  Column Row Layer    Maximum-Flux-Residual          L2-NORM 
          0                 1           2             4    6     1       0.1236699243E+00       4    6    1         0.6625516152E+01      0.1256742396E+02
          0                 2           2             4    7     1       0.1495200088E-01       4    7    1         0.8330225731E+00      0.1338552946E+01
          0                 3           2             5    6     1      -0.3452966426E-01       5    6    1        -0.1899746068E+01      0.4519738393E+01
          0                 4           2             4    8     1       0.3573066245E-01       5    8    1         0.1998920296E+01      0.4657531658E+01
          0                 5           2             4    7     1       0.5239087944E-02       4    7    1         0.3046102122E+00      0.3584650125E+00
          0                 6           2             4    7     1       0.9525306469E-03       4    7    1         0.5470897329E-01      0.5717779066E-01
          0                 7           1             4    7     1       0.1731737284E-03       4    7    1         0.9952325841E-02      0.1038164983E-01
          0                 8           1             4    7     1       0.3148221305E-04       4    7    1         0.1809365453E-02      0.1885121847E-02

    ------------------------------------------------
       NWT REQUIRED            8 OUTER ITERATIONS 
       AND A TOTAL OF         14 INNER ITERATIONS.
    ------------------------------------------------

 NO OUTPUT CONTROL FOR STRESS PERIOD   34   TIME STEP    5
 
 SOLVING FOR HEAD 
                                                   Max.-Head-Change                         Max.-Flux-Residual
  Residual-Control   Outer-Iter.   Inner-Iter.     Column Row Layer    Maximum-Head-Change  Column Row Layer    Maximum-Flux-Residual          L2-NORM 
          0                 1           2             4    6     1       0.1204285134E+00       4    6    1         0.6449919917E+01      0.1226654914E+02
          0                 2           2             4    7     1       0.1468043203E-01       4    7    1         0.8122526529E+00      0.1356447867E+01
          0                 3           2             5    7     1      -0.3451770231E-01       5    7    1        -0.1874513248E+01      0.4492593792E+01
          0                 4           2             4    8     1       0.3572865005E-01       5    8    1         0.1998977063E+01      0.4438475837E+01
          0                 5           2             4    7     1       0.5297412230E-02       4    7    1         0.3033682277E+00      0.4934057404E+00
          0                 6           2             4    7     1       0.9763527948E-03       4    7    1         0.5547190170E-01      0.8640905159E-01
          0                 7           2             4    7     1       0.1799875554E-03       4    7    1         0.1022757060E-01      0.1589766550E-01
          0                 8           1             4    7     1       0.3318667887E-04       4    7    1         0.1885465458E-02      0.2925641073E-02

    ------------------------------------------------
       NWT REQUIRED            8 OUTER ITERATIONS 
       AND A TOTAL OF         15 INNER ITERATIONS.
    ------------------------------------------------

 NO OUTPUT CONTROL FOR STRESS PERIOD   34   TIME STEP    6
 
 SOLVING FOR HEAD 
                                                   Max.-Head-Change                         Max.-Flux-Residual
  Residual-Control   Outer-Iter.   Inner-Iter.     Column Row Layer    Maximum-Head-Change  Column Row Layer    Maximum-Flux-Residual          L2-NORM 
          0                 1           2             4    6     1       0.1175436246E+00       4    6    1         0.6294937982E+01      0.1196935849E+02
          0                 2           2             4    7     1       0.1467814056E-01       4    7    1         0.7930995702E+00      0.1434310696E+01
          0                 3           2             4    8     1      -0.3353229495E-01       5    8    1        -0.1846762554E+01      0.4448430786E+01
          0                 4           2             4    6     1       0.3549135771E-01       5    8    1         0.1998998480E+01      0.4227936654E+01
          0                 5           2             4    7     1       0.5377618136E-02       4    7    1         0.3019988812E+00      0.6070010212E+00
          0                 6           2             4    7     1       0.1010317584E-02       4    7    1         0.5652740049E-01      0.1099497694E+00
          0                 7           2             4    7     1       0.1897227918E-03       4    7    1         0.1062048149E-01      0.2037926566E-01
          0                 8           1             4    7     1       0.3561099576E-04       4    7    1         0.1994145391E-02      0.3777704355E-02

    ------------------------------------------------
       NWT REQUIRED            8 OUTER ITERATIONS 
       AND A TOTAL OF         15 INNER ITERATIONS.
    ------------------------------------------------

 NO OUTPUT CONTROL FOR STRESS PERIOD   34   TIME STEP    7
 
 SOLVING FOR HEAD 
                                                   Max.-Head-Change                         Max.-Flux-Residual
  Residual-Control   Outer-Iter.   Inner-Iter.     Column Row Layer    Maximum-Head-Change  Column Row Layer    Maximum-Flux-Residual          L2-NORM 
          0                 1           2             4    6     1       0.1147532382E+00       4    6    1         0.6144523851E+01      0.1167599556E+02
          0                 2           2             4    7     1       0.1442713781E-01       4    7    1         0.7772790724E+00      0.1456190844E+01
          0                 3           2             4    6     1      -0.3353943368E-01       5    8    1        -0.1847181516E+01      0.4441498007E+01
          0                 4           2             4    6     1       0.3549248584E-01       5    8    1         0.1999029062E+01      0.4229102650E+01
          0                 5           2             4    7     1       0.5377246088E-02       4    7    1         0.3019717792E+00      0.6072751892E+00
          0                 6           2             4    7     1       0.1010272954E-02       4    7    1         0.5652375304E-01      0.1100011661E+00
          0                 7           2             4    7     1       0.1897188142E-03       4    7    1         0.1062005879E-01      0.2038876265E-01
          0                 8           1             4    7     1       0.3561101670E-04       4    7    1         0.1994111698E-02      0.3779458481E-02

    ------------------------------------------------
       NWT REQUIRED            8 OUTER ITERATIONS 
       AND A TOTAL OF         15 INNER ITERATIONS.
    ------------------------------------------------

 NO OUTPUT CONTROL FOR STRESS PERIOD   34   TIME STEP    8
 
 SOLVING FOR HEAD 
                                                   Max.-Head-Change                         Max.-Flux-Residual
  Residual-Control   Outer-Iter.   Inner-Iter.     Column Row Layer    Maximum-Head-Change  Column Row Layer    Maximum-Flux-Residual          L2-NORM 
          0                 1           2             4    6     1       0.1120469752E+00       4    6    1         0.5998607164E+01      0.1138284364E+02
          0                 2           2             4    7     1       0.1414323789E-01       4    7    1         0.7620305094E+00      0.1420657937E+01
          0                 3           2             4    6     1      -0.3355891410E-01       5    8    1        -0.1847640065E+01      0.4445355056E+01
          0                 4           2             4    6     1       0.3549353825E-01       5    8    1         0.1999062716E+01      0.4228668796E+01
          0                 5           2             4    7     1       0.5376041624E-02       4    7    1         0.3019061448E+00      0.6071575313E+00
          0                 6           2             4    7     1       0.1010040672E-02       4    7    1         0.5651102388E-01      0.1099785363E+00
          0                 7           2             4    7     1       0.1896740805E-03       4    7    1         0.1061760520E-01      0.2038451075E-01
          0                 8           1             4    7     1       0.3560241283E-04       4    7    1         0.1993639325E-02      0.3778660170E-02

    ------------------------------------------------
       NWT REQUIRED            8 OUTER ITERATIONS 
       AND A TOTAL OF         15 INNER ITERATIONS.
    ------------------------------------------------

 NO OUTPUT CONTROL FOR STRESS PERIOD   34   TIME STEP    9
 
 SOLVING FOR HEAD 
                                                   Max.-Head-Change                         Max.-Flux-Residual
  Residual-Control   Outer-Iter.   Inner-Iter.     Column Row Layer    Maximum-Head-Change  Column Row Layer    Maximum-Flux-Residual          L2-NORM 
          0                 1           2             4    6     1       0.1094218474E+00       4    6    1         0.5857071332E+01      0.1110162095E+02
          0                 2           2             4    7     1       0.1386353315E-01       4    7    1         0.7470031422E+00      0.1386477961E+01
          0                 3           2             4    6     1      -0.3357780157E-01       5    8    1        -0.1848083293E+01      0.4449079062E+01
          0                 4           2             4    6     1       0.3549455976E-01       5    8    1         0.1999095315E+01      0.4228250488E+01
          0                 5           2             4    7     1       0.5374857042E-02       4    7    1         0.3018415638E+00      0.6070440176E+00
          0                 6           2             4    7     1       0.1009812328E-02       4    7    1         0.5649850593E-01      0.1099566257E+00
          0                 7           2             4    7     1       0.1896301239E-03       4    7    1         0.1061519343E-01      0.2038040103E-01
          0                 8           1             4    7     1       0.3559396208E-04       4    7    1         0.1993175185E-02      0.3777888413E-02

    ------------------------------------------------
       NWT REQUIRED            8 OUTER ITERATIONS 
       AND A TOTAL OF         15 INNER ITERATIONS.
    ------------------------------------------------

 NO OUTPUT CONTROL FOR STRESS PERIOD   34   TIME STEP   10
 
 SOLVING FOR HEAD 
                                                   Max.-Head-Change                         Max.-Flux-Residual
  Residual-Control   Outer-Iter.   Inner-Iter.     Column Row Layer    Maximum-Head-Change  Column Row Layer    Maximum-Flux-Residual          L2-NORM 
          0                 1           2             4    6     1       0.1068753925E+00       4    6    1         0.5719785376E+01      0.1083166677E+02
          0                 2           2             4    7     1       0.1358818830E-01       4    7    1         0.7322062159E+00      0.1353578947E+01
          0                 3           2             4    6     1      -0.3359611288E-01       5    8    1        -0.1848511857E+01      0.4452676901E+01
          0                 4           2             4    6     1       0.3549554890E-01       5    8    1         0.1999126785E+01      0.4227846755E+01
          0                 5           2             4    7     1       0.5373692490E-02       4    7    1         0.3017780477E+00      0.6069343284E+00
          0                 6           2             4    7     1       0.1009587941E-02       4    7    1         0.5648620070E-01      0.1099354699E+00
          0                 7           2             4    7     1       0.1895869453E-03       4    7    1         0.1061282360E-01      0.2037642585E-01
          0                 8           1             4    7     1       0.3558566329E-04       4    7    1         0.1992719295E-02      0.3777140947E-02

    ------------------------------------------------
       NWT REQUIRED            8 OUTER ITERATIONS 
       AND A TOTAL OF         15 INNER ITERATIONS.
    ------------------------------------------------

 NO OUTPUT CONTROL FOR STRESS PERIOD   34   TIME STEP   11
 
 SOLVING FOR HEAD 
                                                   Max.-Head-Change                         Max.-Flux-Residual
  Residual-Control   Outer-Iter.   Inner-Iter.     Column Row Layer    Maximum-Head-Change  Column Row Layer    Maximum-Flux-Residual          L2-NORM 
          0                 1           2             4    6     1       0.1044050478E+00       4    6    1         0.5586612400E+01      0.1057234914E+02
          0                 2           2             4    7     1       0.1332201552E-01       4    7    1         0.7176447190E+00      0.1333997729E+01
          0                 3           2             4    6     1      -0.3361381523E-01       4    6    1        -0.1830060543E+01      0.4442837739E+01
          0                 4           2             4    6     1       0.3549645531E-01       4    6    1         0.1997824360E+01      0.4044070178E+01
          0                 5           2             4    7     1       0.5374017765E-02       4    7    1         0.3016842011E+00      0.6671006159E+00
          0                 6           2             4    7     1       0.1010548788E-02       4    7    1         0.5649421216E-01      0.1233677749E+00
          0                 7           2             4    7     1       0.1900302125E-03       4    7    1         0.1062479672E-01      0.2303438128E-01
          0                 8           1             4    7     1       0.3573438526E-04       4    7    1         0.1997904134E-02      0.4301765047E-02

    ------------------------------------------------
       NWT REQUIRED            8 OUTER ITERATIONS 
       AND A TOTAL OF         15 INNER ITERATIONS.
    ------------------------------------------------

 NO OUTPUT CONTROL FOR STRESS PERIOD   34   TIME STEP   12
 
 SOLVING FOR HEAD 
                                                   Max.-Head-Change                         Max.-Flux-Residual
  Residual-Control   Outer-Iter.   Inner-Iter.     Column Row Layer    Maximum-Head-Change  Column Row Layer    Maximum-Flux-Residual          L2-NORM 
          0                 1           2             4    6     1       0.1020091421E+00       4    6    1         0.5457449496E+01      0.1032686886E+02
          0                 2           2             4    7     1       0.1305877294E-01       4    7    1         0.7034371721E+00      0.1321230796E+01
          0                 3           2             4    6     1      -0.3363101658E-01       4    6    1        -0.1830979065E+01      0.4442844451E+01
          0                 4           2             4    6     1       0.3549739267E-01       4    6    1         0.1997890262E+01      0.4044156833E+01
          0                 5           2             4    7     1       0.5372939347E-02       4    7    1         0.3016248615E+00      0.6671103965E+00
          0                 6           2             4    7     1       0.1010343388E-02       4    7    1         0.5648283847E-01      0.1233692371E+00
          0                 7           2             4    7     1       0.1899911735E-03       4    7    1         0.1062263189E-01      0.2303459889E-01
          0                 8           1             4    7     1       0.3572697887E-04       4    7    1         0.1997492852E-02      0.4301796029E-02

    ------------------------------------------------
       NWT REQUIRED            8 OUTER ITERATIONS 
       AND A TOTAL OF         15 INNER ITERATIONS.
    ------------------------------------------------

 NO OUTPUT CONTROL FOR STRESS PERIOD   34   TIME STEP   13
 
 SOLVING FOR HEAD 
                                                   Max.-Head-Change                         Max.-Flux-Residual
  Residual-Control   Outer-Iter.   Inner-Iter.     Column Row Layer    Maximum-Head-Change  Column Row Layer    Maximum-Flux-Residual          L2-NORM 
          0                 1           2             4    6     1       0.9968510845E-01       4    6    1         0.5332165620E+01      0.1008121395E+02
          0                 2           2             4    7     1       0.1288249860E-01       4    7    1         0.6895199551E+00      0.1194302684E+01
          0                 3           2             4    6     1      -0.3483894921E-01       4    6    1        -0.1898660952E+01      0.4473730038E+01
          0                 4           2             4    6     1       0.3077409932E-01       4    6    1         0.1725795302E+01      0.3916287942E+01
          0                 5           2             4    7     1       0.5414023753E-02       4    7    1         0.3007104942E+00      0.6788826691E+00
          0                 6           2             4    7     1       0.1026573051E-02       4    7    1         0.5701769173E-01      0.1274287021E+00
          0                 7           2             4    7     1       0.1946422388E-03       4    7    1         0.1081081610E-01      0.2392610421E-01
          0                 8           1             4    7     1       0.3690205049E-04       4    7    1         0.2049663125E-02      0.4493607246E-02

    ------------------------------------------------
       NWT REQUIRED            8 OUTER ITERATIONS 
       AND A TOTAL OF         15 INNER ITERATIONS.
    ------------------------------------------------

 NO OUTPUT CONTROL FOR STRESS PERIOD   34   TIME STEP   14
 
 SOLVING FOR HEAD 
                                                   Max.-Head-Change                         Max.-Flux-Residual
  Residual-Control   Outer-Iter.   Inner-Iter.     Column Row Layer    Maximum-Head-Change  Column Row Layer    Maximum-Flux-Residual          L2-NORM 
          0                 1           2             4    6     1       0.9783567856E-01       4    6    1         0.5232551814E+01      0.9859639866E+01
          0                 2           2             4    6     1       0.1370218195E-01       4    6    1         0.7294088102E+00      0.1360987854E+01
          0                 3           2             4    8     1      -0.3323355636E-01       5    8    1        -0.1817225403E+01      0.4420179198E+01
          0                 4           2             4    7     1       0.2847582154E-01       4    6    1         0.1577383811E+01      0.3853460444E+01
          0                 5           2             4    7     1       0.5442267196E-02       4    7    1         0.3003571802E+00      0.7242367156E+00
          0                 6           2             4    7     1       0.1039356717E-02       4    7    1         0.5739375784E-01      0.1361500774E+00
          0                 7           2             4    7     1       0.1983564476E-03       4    7    1         0.1095910234E-01      0.2559891698E-01
          0                 8           1             4    7     1       0.3783031081E-04       4    7    1         0.2091148723E-02      0.4813766626E-02

    ------------------------------------------------
       NWT REQUIRED            8 OUTER ITERATIONS 
       AND A TOTAL OF         15 INNER ITERATIONS.
    ------------------------------------------------

 NO OUTPUT CONTROL FOR STRESS PERIOD   34   TIME STEP   15
 
 SOLVING FOR HEAD 
                                                   Max.-Head-Change                         Max.-Flux-Residual
  Residual-Control   Outer-Iter.   Inner-Iter.     Column Row Layer    Maximum-Head-Change  Column Row Layer    Maximum-Flux-Residual          L2-NORM 
          0                 1           2             4    6     1       0.9439978650E-01       4    6    1         0.5045672126E+01      0.9611374285E+01
          0                 2           2             4    6     1       0.1322931948E-01       4    6    1         0.7041046362E+00      0.1327655654E+01
          0                 3           2             4    8     1      -0.3325696065E-01       5    8    1        -0.1818837783E+01      0.4424556035E+01
          0                 4           2             4    7     1       0.2847068872E-01       4    6    1         0.1576820483E+01      0.3852738959E+01
          0                 5           2             4    7     1       0.5441263002E-02       4    7    1         0.3003028066E+00      0.7241007424E+00
          0                 6           2             4    7     1       0.1039160670E-02       4    7    1         0.5738312493E-01      0.1361244718E+00
          0                 7           2             4    7     1       0.1983182478E-03       4    7    1         0.1095702734E-01      0.2559409303E-01
          0                 8           1             4    7     1       0.3782288064E-04       4    7    1         0.2090744559E-02      0.4812857641E-02

    ------------------------------------------------
       NWT REQUIRED            8 OUTER ITERATIONS 
       AND A TOTAL OF         15 INNER ITERATIONS.
    ------------------------------------------------

 NO OUTPUT CONTROL FOR STRESS PERIOD   34   TIME STEP   16
 
 SOLVING FOR HEAD 
                                                   Max.-Head-Change                         Max.-Flux-Residual
  Residual-Control   Outer-Iter.   Inner-Iter.     Column Row Layer    Maximum-Head-Change  Column Row Layer    Maximum-Flux-Residual          L2-NORM 
          0                 1           2             4    6     1       0.9114881367E-01       4    6    1         0.4868968354E+01      0.9374191727E+01
          0                 2           2             4    6     1       0.1278147488E-01       4    6    1         0.6801505067E+00      0.1295674304E+01
          0                 3           2             4    8     1      -0.3327982017E-01       5    8    1        -0.1820353320E+01      0.4428781584E+01
          0                 4           2             4    7     1       0.2846556908E-01       4    6    1         0.1576286301E+01      0.3852042320E+01
          0                 5           2             4    7     1       0.5440263087E-02       4    7    1         0.3002485902E+00      0.7239693867E+00
          0                 6           2             4    7     1       0.1038965754E-02       4    7    1         0.5737254041E-01      0.1360997229E+00
          0                 7           2             4    7     1       0.1982803194E-03       4    7    1         0.1095496483E-01      0.2558942827E-01
          0                 8           1             4    7     1       0.3781551236E-04       4    7    1         0.2090343356E-02      0.4811978024E-02

    ------------------------------------------------
       NWT REQUIRED            8 OUTER ITERATIONS 
       AND A TOTAL OF         15 INNER ITERATIONS.
    ------------------------------------------------

 NO OUTPUT CONTROL FOR STRESS PERIOD   34   TIME STEP   17
 
 SOLVING FOR HEAD 
                                                   Max.-Head-Change                         Max.-Flux-Residual
  Residual-Control   Outer-Iter.   Inner-Iter.     Column Row Layer    Maximum-Head-Change  Column Row Layer    Maximum-Flux-Residual          L2-NORM 
          0                 1           2             4    6     1       0.8807079519E-01       4    6    1         0.4701759483E+01      0.9810957349E+01
          0                 2           2             5    8     1       0.3468132942E-01       5    8    1         0.1898950740E+01      0.2259233478E+01
          0                 3           2             4    7     1      -0.3312516365E-01       5    6    1        -0.1812686765E+01      0.4167567613E+01
          0                 4           2             4    7     1       0.2846336349E-01       4    6    1         0.1575784125E+01      0.3777756873E+01
          0                 5           2             5    8     1       0.1148278597E-01       5    8    1         0.6605428432E+00      0.9355521342E+00
          0                 6           2             5    8     1       0.5350635109E-02       5    8    1         0.3102473710E+00      0.3348510280E+00
          0                 7           2             5    8     1       0.2483669156E-02       5    8    1         0.1444625740E+00      0.1465310557E+00
          0                 8           1             5    8     1       0.1151103839E-02       5    8    1         0.6703705755E-01      0.6722809193E-01
          0                 9           1             5    8     1       0.5331696441E-03       5    8    1         0.3106553661E-01      0.3108841007E-01
          0                10           1             5    8     1       0.2468910385E-03       5    8    1         0.1438803932E-01      0.1439230705E-01
                                                   Max.-Head-Change                         Max.-Flux-Residual
  Residual-Control   Outer-Iter.   Inner-Iter.     Column Row Layer    Maximum-Head-Change  Column Row Layer    Maximum-Flux-Residual          L2-NORM 
          0                11           1             5    8     1       0.1143135800E-03       5    8    1         0.6662310101E-02      0.6663555223E-02
          0                12           1             5    8     1       0.5292591843E-04       5    8    1         0.3084645455E-02      0.3085119722E-02

    ------------------------------------------------
       NWT REQUIRED           12 OUTER ITERATIONS 
       AND A TOTAL OF         19 INNER ITERATIONS.
    ------------------------------------------------

 NO OUTPUT CONTROL FOR STRESS PERIOD   34   TIME STEP   18
 
 SOLVING FOR HEAD 
                                                   Max.-Head-Change                         Max.-Flux-Residual
  Residual-Control   Outer-Iter.   Inner-Iter.     Column Row Layer    Maximum-Head-Change  Column Row Layer    Maximum-Flux-Residual          L2-NORM 
          0                 1           2             5    8     1       0.1239750329E+00       5    8    1         0.6749196011E+01      0.1098868219E+02
          0                 2           2             5    8     1       0.1751656888E-01       5    8    1         0.9519218953E+00      0.1540077372E+01
          0                 3           2             4    8     1      -0.3319921655E-01       5    6    1        -0.1813887887E+01      0.4396552599E+01
          0                 4           2             4    7     1       0.2845785465E-01       5    8    1         0.1577125851E+01      0.3853249320E+01
          0                 5           2             4    7     1       0.5438931078E-02       5    8    1         0.3011400940E+00      0.7278247611E+00
          0                 6           2             4    7     1       0.1038765119E-02       5    8    1         0.5747648157E-01      0.1375046753E+00
          0                 7           2             4    7     1       0.1982598724E-03       5    8    1         0.1096543717E-01      0.2598138719E-01
          0                 8           1             4    7     1       0.3781686062E-04       5    8    1         0.2091164233E-02      0.4909708679E-02

    ------------------------------------------------
       NWT REQUIRED            8 OUTER ITERATIONS 
       AND A TOTAL OF         15 INNER ITERATIONS.
    ------------------------------------------------

 NO OUTPUT CONTROL FOR STRESS PERIOD   34   TIME STEP   19
 
 SOLVING FOR HEAD 
                                                   Max.-Head-Change                         Max.-Flux-Residual
  Residual-Control   Outer-Iter.   Inner-Iter.     Column Row Layer    Maximum-Head-Change  Column Row Layer    Maximum-Flux-Residual          L2-NORM 
          0                 1           2             4    7     1       0.8263573426E-01       4    6    1         0.4393581064E+01      0.8687021448E+01
          0                 2           2             4    7     1       0.1184977287E-01       4    7    1         0.6230653782E+00      0.1204333918E+01
          0                 3           2             4    8     1      -0.3330720858E-01       5    8    1        -0.1832179407E+01      0.4441849894E+01
          0                 4           2             4    7     1       0.2845171997E-01       4    6    1         0.1574847296E+01      0.3845577969E+01
          0                 5           2             4    7     1       0.5437612169E-02       4    7    1         0.3001020285E+00      0.7263548330E+00
          0                 6           2             4    7     1       0.1038482321E-02       4    7    1         0.5734459497E-01      0.1372225328E+00
          0                 7           2             4    7     1       0.1981995287E-03       4    7    1         0.1094991867E-01      0.2592730433E-01
          0                 8           1             4    7     1       0.3780406072E-04       4    7    1         0.2089515486E-02      0.4899352358E-02

    ------------------------------------------------
       NWT REQUIRED            8 OUTER ITERATIONS 
       AND A TOTAL OF         15 INNER ITERATIONS.
    ------------------------------------------------

 NO OUTPUT CONTROL FOR STRESS PERIOD   34   TIME STEP   20
 
 SOLVING FOR HEAD 
                                                   Max.-Head-Change                         Max.-Flux-Residual
  Residual-Control   Outer-Iter.   Inner-Iter.     Column Row Layer    Maximum-Head-Change  Column Row Layer    Maximum-Flux-Residual          L2-NORM 
          0                 1           2             4    7     1       0.8124854169E-01       4    7    1         0.4278186796E+01      0.8488628330E+01
          0                 2           2             4    7     1       0.1164404855E-01       4    7    1         0.6124658372E+00      0.1177151898E+01
          0                 3           2             4    8     1      -0.3333295238E-01       5    8    1        -0.1832485942E+01      0.4445379349E+01
          0                 4           2             4    7     1       0.2844681813E-01       4    6    1         0.1574402838E+01      0.3844984739E+01
          0                 5           2             4    7     1       0.5436655384E-02       4    7    1         0.3000501224E+00      0.7262504486E+00
          0                 6           2             4    7     1       0.1038295961E-02       4    7    1         0.5733446812E-01      0.1372027165E+00
          0                 7           2             4    7     1       0.1981632998E-03       4    7    1         0.1094794700E-01      0.2592355946E-01
          0                 8           1             4    7     1       0.3779703007E-04       4    7    1         0.2089132330E-02      0.4898644221E-02

    ------------------------------------------------
       NWT REQUIRED            8 OUTER ITERATIONS 
       AND A TOTAL OF         15 INNER ITERATIONS.
    ------------------------------------------------

 NO OUTPUT CONTROL FOR STRESS PERIOD   34   TIME STEP   21
 
 SOLVING FOR HEAD 
                                                   Max.-Head-Change                         Max.-Flux-Residual
  Residual-Control   Outer-Iter.   Inner-Iter.     Column Row Layer    Maximum-Head-Change  Column Row Layer    Maximum-Flux-Residual          L2-NORM 
          0                 1           2             4    7     1       0.7985398218E-01       4    7    1         0.4205973899E+01      0.8298187456E+01
          0                 2           2             4    7     1       0.1143818815E-01       4    7    1         0.6018313933E+00      0.1150963340E+01
          0                 3           2             4    8     1      -0.3335765078E-01       5    8    1        -0.1832816273E+01      0.4448807738E+01
          0                 4           2             4    7     1       0.2844194444E-01       4    6    1         0.1573990990E+01      0.3844417855E+01
          0                 5           2             4    7     1       0.5435705719E-02       4    7    1         0.2999985316E+00      0.7261431449E+00
          0                 6           2             4    7     1       0.1038111265E-02       4    7    1         0.5732441954E-01      0.1371824423E+00
          0                 7           2             4    7     1       0.1981274411E-03       4    7    1         0.1094599341E-01      0.2591972640E-01
          0                 8           1             4    7     1       0.3779007930E-04       4    7    1         0.2088753177E-02      0.4897919437E-02

    ------------------------------------------------
       NWT REQUIRED            8 OUTER ITERATIONS 
       AND A TOTAL OF         15 INNER ITERATIONS.
    ------------------------------------------------

 NO OUTPUT CONTROL FOR STRESS PERIOD   34   TIME STEP   22
 
 SOLVING FOR HEAD 
                                                   Max.-Head-Change                         Max.-Flux-Residual
  Residual-Control   Outer-Iter.   Inner-Iter.     Column Row Layer    Maximum-Head-Change  Column Row Layer    Maximum-Flux-Residual          L2-NORM 
          0                 1           2             4    7     1       0.7845656461E-01       4    7    1         0.4133427674E+01      0.8115194824E+01
          0                 2           2             4    7     1       0.1123273766E-01       4    7    1         0.5911937300E+00      0.1125710596E+01
          0                 3           2             4    8     1      -0.3338137994E-01       5    8    1        -0.1833166596E+01      0.4452131500E+01
          0                 4           2             4    7     1       0.2843710794E-01       4    6    1         0.1573598728E+01      0.3843863484E+01
          0                 5           2             4    7     1       0.5434764722E-02       4    7    1         0.2999473494E+00      0.7260424390E+00
          0                 6           2             4    7     1       0.1037928497E-02       4    7    1         0.5731446523E-01      0.1371633368E+00
          0                 7           2             4    7     1       0.1980919980E-03       4    7    1         0.1094406065E-01      0.2591611009E-01
          0                 8           1             4    7     1       0.3778321587E-04       4    7    1         0.2088378471E-02      0.4897234637E-02

    ------------------------------------------------
       NWT REQUIRED            8 OUTER ITERATIONS 
       AND A TOTAL OF         15 INNER ITERATIONS.
    ------------------------------------------------

 NO OUTPUT CONTROL FOR STRESS PERIOD   34   TIME STEP   23
 
 SOLVING FOR HEAD 
                                                   Max.-Head-Change                         Max.-Flux-Residual
  Residual-Control   Outer-Iter.   Inner-Iter.     Column Row Layer    Maximum-Head-Change  Column Row Layer    Maximum-Flux-Residual          L2-NORM 
          0                 1           2             4    8     1       0.1798221088E+00       4    8    1         0.9682390272E+01      0.1220627197E+02
          0                 2           2             4    8     1       0.2799134342E-01       4    8    1         0.1506967013E+01      0.1833922203E+01
          0                 3           2             5    7     1      -0.3337293688E-01       5    8    1        -0.1826188420E+01      0.4386991295E+01
          0                 4           2             4    7     1       0.2846005149E-01       4    8    1         0.1584773707E+01      0.3851167271E+01
          0                 5           2             4    8     1       0.5512240626E-02       4    8    1         0.3077854102E+00      0.7311874364E+00
          0                 6           2             4    8     1       0.1069533650E-02       4    8    1         0.5974321496E-01      0.1388800068E+00
          0                 7           2             4    8     1       0.2074125763E-03       4    8    1         0.1159033107E-01      0.2638751984E-01
          0                 8           1             4    8     1       0.4020297710E-04       4    8    1         0.2247392582E-02      0.5015312349E-02

    ------------------------------------------------
       NWT REQUIRED            8 OUTER ITERATIONS 
       AND A TOTAL OF         15 INNER ITERATIONS.
    ------------------------------------------------

 NO OUTPUT CONTROL FOR STRESS PERIOD   34   TIME STEP   24
 
 SOLVING FOR HEAD 
                                                   Max.-Head-Change                         Max.-Flux-Residual
  Residual-Control   Outer-Iter.   Inner-Iter.     Column Row Layer    Maximum-Head-Change  Column Row Layer    Maximum-Flux-Residual          L2-NORM 
          0                 1           2             5    7     1       0.1725448671E+00       5    7    1         0.9392735977E+01      0.1181277588E+02
          0                 2           2             5    7     1       0.2771693163E-01       5    7    1         0.1510562618E+01      0.1824326680E+01
          0                 3           2             4    8     1      -0.3346156165E-01       5    8    1        -0.1824859228E+01      0.4388657701E+01
          0                 4           2             4    7     1       0.2846314504E-01       5    7    1         0.1583026476E+01      0.3846524422E+01
          0                 5           2             5    7     1       0.5515237241E-02       5    7    1         0.3078493500E+00      0.7339525423E+00
          0                 6           2             5    7     1       0.1069875227E-02       5    7    1         0.5978018687E-01      0.1401160940E+00
          0                 7           2             5    7     1       0.2072916712E-03       5    7    1         0.1159335183E-01      0.2676051588E-01
          0                 8           1             5    7     1       0.4012007957E-04       5    7    1         0.2245692299E-02      0.5112915844E-02

    ------------------------------------------------
       NWT REQUIRED            8 OUTER ITERATIONS 
       AND A TOTAL OF         15 INNER ITERATIONS.
    ------------------------------------------------

 NO OUTPUT CONTROL FOR STRESS PERIOD   34   TIME STEP   25
 
 SOLVING FOR HEAD 
                                                   Max.-Head-Change                         Max.-Flux-Residual
  Residual-Control   Outer-Iter.   Inner-Iter.     Column Row Layer    Maximum-Head-Change  Column Row Layer    Maximum-Flux-Residual          L2-NORM 
          0                 1           2             4    7     1       0.7807120395E-01       4    7    1         0.4133382616E+01      0.7540521503E+01
          0                 2           2             4    7     1       0.1109513460E-01       4    7    1         0.5862622948E+00      0.1054717244E+01
          0                 3           2             5    7     1      -0.3349426631E-01       5    8    1        -0.1830675086E+01      0.4460163281E+01
          0                 4           2             4    7     1       0.2842671817E-01       5    6    1         0.1573189914E+01      0.3833841157E+01
          0                 5           2             4    7     1       0.5435859551E-02       5    7    1         0.3030993377E+00      0.7314628510E+00
          0                 6           2             5    7     1       0.1054756909E-02       5    7    1         0.5890213766E-01      0.1396294222E+00
          0                 7           2             5    7     1       0.2044921803E-03       5    7    1         0.1143088997E-01      0.2666570198E-01
          0                 8           1             4    8     1       0.3961194786E-04       5    7    1         0.2215605259E-02      0.5094496045E-02

    ------------------------------------------------
       NWT REQUIRED            8 OUTER ITERATIONS 
       AND A TOTAL OF         15 INNER ITERATIONS.
    ------------------------------------------------

 NO OUTPUT CONTROL FOR STRESS PERIOD   34   TIME STEP   26
 
 SOLVING FOR HEAD 
                                                   Max.-Head-Change                         Max.-Flux-Residual
  Residual-Control   Outer-Iter.   Inner-Iter.     Column Row Layer    Maximum-Head-Change  Column Row Layer    Maximum-Flux-Residual          L2-NORM 
          0                 1           2             5    6     1       0.1574404861E+00       5    6    1         0.8588209145E+01      0.1106463016E+02
          0                 2           2             5    6     1       0.2214066209E-01       5    6    1         0.1207137933E+01      0.1564454262E+01
          0                 3           2             4    8     1      -0.3349460450E-01       5    8    1        -0.1831407398E+01      0.4409573615E+01
          0                 4           2             4    7     1       0.2842377458E-01       5    6    1         0.1582097544E+01      0.3838333628E+01
          0                 5           2             5    7     1       0.5441155805E-02       5    7    1         0.3033815220E+00      0.7359096567E+00
          0                 6           2             5    7     1       0.1057232168E-02       5    7    1         0.5899082859E-01      0.1411283739E+00
          0                 7           2             5    7     1       0.2052446284E-03       5    7    1         0.1145974270E-01      0.2706995467E-01
          0                 8           1             5    7     1       0.3981308420E-04       5    7    1         0.2224298398E-02      0.5193190943E-02

    ------------------------------------------------
       NWT REQUIRED            8 OUTER ITERATIONS 
       AND A TOTAL OF         15 INNER ITERATIONS.
    ------------------------------------------------

 NO OUTPUT CONTROL FOR STRESS PERIOD   34   TIME STEP   27
 
 SOLVING FOR HEAD 
                                                   Max.-Head-Change                         Max.-Flux-Residual
  Residual-Control   Outer-Iter.   Inner-Iter.     Column Row Layer    Maximum-Head-Change  Column Row Layer    Maximum-Flux-Residual          L2-NORM 
          0                 1           2             4    7     1       0.1682420949E+00       4    7    1         0.9040773742E+01      0.1086266071E+02
          0                 2           2             4    7     1       0.3465251214E-01       4    7    1         0.1867763500E+01      0.2058363111E+01
          0                 3           2             4    8     1      -0.3335943809E-01       5    8    1        -0.1831973999E+01      0.4385697669E+01
          0                 4           2             4    7     1       0.2877178512E-01       4    7    1         0.1588115143E+01      0.3839062595E+01
          0                 5           2             4    7     1       0.5658277435E-02       4    7    1         0.3126051053E+00      0.7398796694E+00
          0                 6           2             4    7     1       0.1111558992E-02       4    7    1         0.6146232077E-01      0.1426529422E+00
          0                 7           2             4    7     1       0.2181470572E-03       4    7    1         0.1207144720E-01      0.2751385697E-01
          0                 8           1             4    7     1       0.4277288879E-04       4    7    1         0.2368560838E-02      0.5308323891E-02

    ------------------------------------------------
       NWT REQUIRED            8 OUTER ITERATIONS 
       AND A TOTAL OF         15 INNER ITERATIONS.
    ------------------------------------------------

 NO OUTPUT CONTROL FOR STRESS PERIOD   34   TIME STEP   28
 
 SOLVING FOR HEAD 
                                                   Max.-Head-Change                         Max.-Flux-Residual
  Residual-Control   Outer-Iter.   Inner-Iter.     Column Row Layer    Maximum-Head-Change  Column Row Layer    Maximum-Flux-Residual          L2-NORM 
          0                 1           2             4    7     1       0.6715334174E-01       4    6    1         0.3556018854E+01      0.6998367382E+01
          0                 2           2             4    7     1       0.1001144906E-01       4    7    1         0.5274438303E+00      0.9935791045E+00
          0                 3           2             4    8     1      -0.3349492025E-01       5    8    1        -0.1832833368E+01      0.4466546159E+01
          0                 4           2             4    7     1       0.2822774438E-01       4    6    1         0.1572157693E+01      0.3824117947E+01
          0                 5           2             4    7     1       0.5556035222E-02       4    7    1         0.3067427180E+00      0.7368965271E+00
          0                 6           2             4    7     1       0.1092329428E-02       4    7    1         0.6036047613E-01      0.1420596525E+00
          0                 7           2             4    7     1       0.2145276401E-03       4    7    1         0.1186419394E-01      0.2739622507E-01
          0                 8           1             4    7     1       0.4209113044E-04       4    7    1         0.2329547750E-02      0.5285055462E-02

    ------------------------------------------------
       NWT REQUIRED            8 OUTER ITERATIONS 
       AND A TOTAL OF         15 INNER ITERATIONS.
    ------------------------------------------------

 NO OUTPUT CONTROL FOR STRESS PERIOD   34   TIME STEP   29
 
 SOLVING FOR HEAD 
                                                   Max.-Head-Change                         Max.-Flux-Residual
  Residual-Control   Outer-Iter.   Inner-Iter.     Column Row Layer    Maximum-Head-Change  Column Row Layer    Maximum-Flux-Residual          L2-NORM 
          0                 1           2             4    7     1       0.6594511462E-01       4    7    1         0.3474668335E+01      0.6859155457E+01
          0                 2           2             4    7     1       0.9828420415E-02       4    7    1         0.5179006950E+00      0.9736307755E+00
          0                 3           2             4    8     1      -0.3351120328E-01       5    8    1        -0.1833541131E+01      0.4469268694E+01
          0                 4           2             4    7     1       0.2822319378E-01       4    6    1         0.1571819118E+01      0.3823657875E+01
          0                 5           2             4    7     1       0.5555130472E-02       4    7    1         0.3066931838E+00      0.7368075622E+00
          0                 6           2             4    7     1       0.1092149727E-02       4    7    1         0.6035063002E-01      0.1420424545E+00
          0                 7           2             4    7     1       0.2144919824E-03       4    7    1         0.1186223872E-01      0.2739289568E-01
          0                 8           1             4    7     1       0.4208406145E-04       4    7    1         0.2329159859E-02      0.5284406999E-02

    ------------------------------------------------
       NWT REQUIRED            8 OUTER ITERATIONS 
       AND A TOTAL OF         15 INNER ITERATIONS.
    ------------------------------------------------

 NO OUTPUT CONTROL FOR STRESS PERIOD   34   TIME STEP   30



 STREAM LISTING     PERIOD     34   STEP       30

 LAYER ROW COL. STREAM  RCH.  FLOW INTO     FLOW TO   FLOW OUT OF   OVRLND.     DIRECT     STREAM       STREAM     STREAM     STREAM   STREAMBED  STREAMBED
                SEG.NO.  NO.  STRM. RCH.    AQUIFER    STRM. RCH.    RUNOFF     PRECIP       ET          HEAD       DEPTH      WIDTH   CONDCTNC.   GRADIENT

   1    1    1     1     1    1.7624E+01  2.0521E-01   1.7419E+01  0.000E+00  0.000E+00  0.000E+00  1.09411E+03  1.059E+00  1.124E+01  5.056E-02  1.353E+00
   1    2    2     1     2    1.7419E+01  3.1648E-01   1.7103E+01  0.000E+00  0.000E+00  0.000E+00  1.08911E+03  1.054E+00  1.115E+01  7.807E-02  1.351E+00
   1    3    3     1     3    1.7103E+01  2.6863E-01   1.6834E+01  0.000E+00  0.000E+00  0.000E+00  1.08347E+03  1.049E+00  1.106E+01  6.635E-02  1.350E+00
   1    3    4     1     4    1.6834E+01  2.4632E-01   1.6588E+01  0.000E+00  0.000E+00  0.000E+00  1.07845E+03  1.044E+00  1.097E+01  6.091E-02  1.348E+00
   1    4    5     2     1    1.4588E+01  3.0175E-01   1.4286E+01  0.000E+00  0.000E+00  0.000E+00  1.07280E+03  8.686E-01  1.200E+01  7.800E-02  1.290E+00
   1    5    6     2     2    1.4286E+01  2.3154E-01   1.4055E+01  0.000E+00  0.000E+00  0.000E+00  1.06737E+03  8.590E-01  1.200E+01  6.000E-02  1.286E+00
   1    6    6     2     3    1.4055E+01  2.3103E-01   1.3824E+01  0.000E+00  0.000E+00  0.000E+00  1.06264E+03  8.505E-01  1.200E+01  6.000E-02  1.284E+00
   1    7    6     2     4    1.3824E+01  2.3052E-01   1.3593E+01  0.000E+00  0.000E+00  0.000E+00  1.05792E+03  8.420E-01  1.200E+01  6.000E-02  1.281E+00
   1    8    6     2     5    1.3593E+01  2.3001E-01   1.3363E+01  0.000E+00  0.000E+00  0.000E+00  1.05319E+03  8.335E-01  1.200E+01  6.000E-02  1.278E+00
   1    3    5     3     1    2.0000E+00  2.8252E-01   1.7175E+00  0.000E+00  0.000E+00  0.000E+00  1.07555E+03  1.909E+00  9.636E+00  7.227E-02  1.955E+00
   1    3    6     3     2    1.7175E+00  2.4905E-01   1.4684E+00  0.000E+00  0.000E+00  0.000E+00  1.07264E+03  1.727E+00  8.909E+00  6.682E-02  1.864E+00
   1    3    7     3     3    1.4684E+00  1.9718E-01   1.2712E+00  0.000E+00  0.000E+00  0.000E+00  1.06987E+03  1.555E+00  8.218E+00  5.547E-02  1.777E+00
   1    4    8     3     4    1.2712E+00  2.2567E-01   1.0456E+00  0.000E+00  0.000E+00  0.000E+00  1.06682E+03  1.364E+00  7.455E+00  6.709E-02  1.682E+00
   1    5    8     3     5    1.0456E+00  1.5790E-01   8.8768E-01  0.000E+00  0.000E+00  0.000E+00  1.06362E+03  1.164E+00  6.655E+00  4.991E-02  1.582E+00
   1    6    8     3     6    8.8768E-01  5.5980E-02   8.3170E-01  0.000E+00  0.000E+00  0.000E+00  1.06158E+03  1.036E+00  6.145E+00  1.844E-02  1.518E+00
   1    5   10     4     1    1.0000E+01  9.0919E-02   9.9091E+00  0.000E+00  0.000E+00  0.000E+00  1.07836E+03  6.368E-01  1.000E+01  2.500E-02  1.212E+00
   1    5    9     4     2    9.9091E+00  1.8158E-01   9.7275E+00  0.000E+00  0.000E+00  0.000E+00  1.07154E+03  6.315E-01  1.000E+01  5.000E-02  1.211E+00
   1    6    8     4     3    9.7275E+00  1.2689E-01   9.6006E+00  0.000E+00  0.000E+00  0.000E+00  1.06381E+03  6.256E-01  1.000E+01  3.500E-02  1.209E+00
   1    6    8     5     1    1.0432E+01  2.2686E-01   1.0205E+01  0.000E+00  0.000E+00  0.000E+00  1.05868E+03  6.790E-01  1.542E+01  6.166E-02  1.226E+00
   1    7    7     5     2    1.0205E+01  2.7894E-01   9.9265E+00  0.000E+00  0.000E+00  0.000E+00  1.05417E+03  6.732E-01  1.519E+01  7.594E-02  1.224E+00
   1    8    7     5     3    9.9265E+00  1.9221E-01   9.7343E+00  0.000E+00  0.000E+00  0.000E+00  1.04992E+03  6.676E-01  1.497E+01  5.241E-02  1.223E+00
   1    8    6     5     4    9.7343E+00  1.3577E-01   9.5985E+00  0.000E+00  0.000E+00  0.000E+00  1.04691E+03  6.637E-01  1.482E+01  3.706E-02  1.221E+00
   1    9    6     6     1    1.1743E+01  2.2629E-01   1.1517E+01  0.000E+00  0.000E+00  0.000E+00  1.04350E+03  7.715E-01  1.200E+01  6.000E-02  1.257E+00
   1   10    7     6     2    1.1517E+01  2.2575E-01   1.1291E+01  0.000E+00  0.000E+00  0.000E+00  1.03894E+03  7.624E-01  1.200E+01  6.000E-02  1.254E+00
   1   11    7     6     3    1.1291E+01  2.2520E-01   1.1066E+01  0.000E+00  0.000E+00  0.000E+00  1.03439E+03  7.534E-01  1.200E+01  6.000E-02  1.251E+00
   1   12    7     6     4    1.1066E+01  2.2465E-01   1.0841E+01  0.000E+00  0.000E+00  0.000E+00  1.02984E+03  7.442E-01  1.200E+01  6.000E-02  1.248E+00
   1   13    7     6     5    1.0841E+01  3.1083E-03   1.0838E+01  0.000E+00  0.000E+00  0.000E+00  1.02665E+03  7.396E-01  1.200E+01  2.400E-02  4.317E-02
   1   14    9     7     1    1.5000E+02  1.3939E+00   1.4861E+02  0.000E+00  0.000E+00  0.000E+00  1.03987E+03  2.288E+00  5.529E+01  5.593E-01  8.308E-01
   1   13    8     7     2    1.4861E+02  2.0160E+00   1.4659E+02  0.000E+00  0.000E+00  0.000E+00  1.03478E+03  2.278E+00  5.525E+01  6.147E-01  1.093E+00
   1   13    7     7     3    1.4659E+02  1.7692E+00   1.4482E+02  0.000E+00  0.000E+00  0.000E+00  1.02969E+03  2.268E+00  5.521E+01  5.583E-01  1.056E+00
   1   13    6     8     1    1.5566E+02  1.1310E+00   1.5453E+02  0.000E+00  0.000E+00  0.000E+00  1.02473E+03  2.852E+00  4.136E+01  4.215E-01  8.945E-01
   1   13    5     8     2    1.5453E+02  3.8005E-01   1.5415E+02  0.000E+00  0.000E+00  0.000E+00  1.01847E+03  2.847E+00  4.128E+01  4.207E-01  3.011E-01
   1   13    4     8     3    1.5415E+02 -1.7229E+00   1.5587E+02  0.000E+00  0.000E+00  0.000E+00  1.01223E+03  2.852E+00  4.135E+01  4.214E+00 -1.363E-01
   1   13    3     8     4    1.5587E+02 -3.2921E+00   1.5916E+02  0.000E+00  0.000E+00  0.000E+00  1.00599E+03  2.869E+00  4.160E+01  4.239E+00 -2.589E-01
   1   13    2     8     5    1.5916E+02 -2.4917E+00   1.6165E+02  0.000E+00  0.000E+00  0.000E+00  9.99764E+02  2.889E+00  4.188E+01  4.268E+00 -1.946E-01
   1   13    1     8     6    1.6165E+02 -1.9599E+00   1.6361E+02  0.000E+00  0.000E+00  0.000E+00  9.94779E+02  2.904E+00  4.210E+01  2.574E+00 -2.538E-01
   1    8    6     9     1    1.1218E+01  0.0000E+00   1.1218E+01  0.000E+00  0.000E+00  0.000E+00  1.08118E+03  2.428E+00  4.000E+00  0.000E+00  1.809E+00
   1    8    5     9     2    1.1218E+01  0.0000E+00   1.1218E+01  0.000E+00  0.000E+00  0.000E+00  1.08068E+03  2.428E+00  4.000E+00  0.000E+00  1.809E+00





UNSATURATED ZONE PACKAGE VOLUMETRIC BUDGET FOR  TIME STEP    30 STRESS PERIOD   34
  ------------------------------------------------------------------------------



     CUMULATIVE VOLUMES      L**3       RATES FOR THIS TIME STEP      L**3/T
     ------------------                 ------------------------

           IN:                                      IN:
           ---                                      ---
        INFILTRATION =  1744149905.3787          INFILTRATION =          12.0660

          OUT:                                     OUT:
          ----                                     ----
              UZF ET =  1276882750.4594                UZF ET =          12.0675
        UZF RECHARGE =    56470269.0969          UZF RECHARGE =           4.6383

            IN - OUT =   410796885.8224              IN - OUT =          -4.6398

          STORAGE:                                 STORAGE:
          --------                                 --------
      STORAGE CHANGE =   410801452.6348        STORAGE CHANGE =          -4.6398

 PERCENT DISCREPANCY IS DIFFERENCE BETWEEN IN-OUT MINUS CHANGE IN STORAGE
 DIVIDED BY THE AVERAGE OF IN AND OUT TIMES 100

 PERCENT DISCREPANCY =          -0.00     PERCENT DISCREPANCY =           0.00






1
  VOLUMETRIC BUDGET FOR AGRICULTURAL FIELDS AT  END OF TIME STEP   30, STRESS PERIOD  34
  ------------------------------------------------------------------------------

     CUMULATIVE VOLUMES      L**3       RATES FOR THIS TIME STEP      L**3/T
     ------------------                 ------------------------

           IN:                                      IN:
           ---                                      ---
               AG WELLS  =  1101049344.0000                 AG WELLS  =           0.0000
      DIVERSION SEGMENTS =   569665728.0000        DIVERSION SEGMENTS =          11.2183
       IRRIGATION PONDS  =           0.0000         IRRIGATION PONDS  =           0.0000
           GW IRRIGATION =           0.0000             GW IRRIGATION =           0.0000
           SW IRRIGATION =           0.0000             SW IRRIGATION =           0.0000
        SYSTEM LOSSES GW =           0.0000          SYSTEM LOSSES GW =           0.0000
        SYSTEM LOSSES SW =           0.0000          SYSTEM LOSSES SW =           0.0000

                TOTAL IN =  1670715136.0000                  TOTAL IN =          11.2183

          OUT:                                     OUT:
          ----                                     ----
               AG WELLS  =           0.0000                 AG WELLS  =           0.0000
      DIVERSION SEGMENTS =           0.0000        DIVERSION SEGMENTS =           0.0000
       IRRIGATION PONDS  =           0.0000         IRRIGATION PONDS  =           0.0000
           GW IRRIGATION =  1101049344.0000             GW IRRIGATION =           0.0000
           SW IRRIGATION =   569677120.0000             SW IRRIGATION =          11.2185
        SYSTEM LOSSES GW =           0.0000          SYSTEM LOSSES GW =           0.0000
        SYSTEM LOSSES SW =           0.0000          SYSTEM LOSSES SW =           0.0000

               TOTAL OUT =  1670726400.0000                 TOTAL OUT =          11.2185

                IN - OUT =      -11264.0000                  IN - OUT =      -2.2411E-04

     PERCENT DISCREPANCY =          -0.00         PERCENT DISCREPANCY =          -0.00



1
  VOLUMETRIC BUDGET FOR ENTIRE MODEL AT END OF TIME STEP   30, STRESS PERIOD  34
  ------------------------------------------------------------------------------

     CUMULATIVE VOLUMES      L**3       RATES FOR THIS TIME STEP      L**3/T
     ------------------                 ------------------------

           IN:                                      IN:
           ---                                      ---
             STORAGE     =  1610357504.0000               STORAGE     =          13.9683
       CONSTANT HEAD     =           0.0000         CONSTANT HEAD     =           0.0000
     HEAD DEP BOUNDS     =    25060778.0000       HEAD DEP BOUNDS     =           0.2897
      STREAM LEAKAGE     =  1038935552.0000        STREAM LEAKAGE     =          12.2580
        UZF RECHARGE     =    56470256.0000          UZF RECHARGE     =           4.6383
               GW ET     =           0.0000                 GW ET     =           0.0000
     SURFACE LEAKAGE     =           0.0000       SURFACE LEAKAGE     =           0.0000
           AG WELLS      =           0.0000             AG WELLS      =           0.0000

                TOTAL IN =  2730823936.0000                  TOTAL IN =          31.1544

          OUT:                                     OUT:
          ----                                     ----
             STORAGE     =   743614208.0000               STORAGE     =          21.3988
       CONSTANT HEAD     =           0.0000         CONSTANT HEAD     =           0.0000
     HEAD DEP BOUNDS     =    25005062.0000       HEAD DEP BOUNDS     =           0.2865
      STREAM LEAKAGE     =   861159680.0000        STREAM LEAKAGE     =           9.4666
        UZF RECHARGE     =           0.0000          UZF RECHARGE     =           0.0000
               GW ET     =           0.0000                 GW ET     =           0.0000
     SURFACE LEAKAGE     =           0.0000       SURFACE LEAKAGE     =           0.0000
           AG WELLS      =  1101049344.0000             AG WELLS      =           0.0000

               TOTAL OUT =  2730828288.0000                 TOTAL OUT =          31.1519

                IN - OUT =       -4352.0000                  IN - OUT =       2.4986E-03

     PERCENT DISCREPANCY =          -0.00         PERCENT DISCREPANCY =           0.01






         TIME SUMMARY AT END OF TIME STEP   30 IN STRESS PERIOD   34
                    SECONDS     MINUTES      HOURS       DAYS        YEARS
                    -----------------------------------------------------------
   TIME STEP LENGTH  87667.      1461.1      24.352      1.0147     2.77799E-03
 STRESS PERIOD TIME 2.63000E+06  43833.      730.56      30.440     8.33397E-02
         TOTAL TIME 8.68762E+07 1.44794E+06  24132.      1005.5      2.7529    
1
1
                            STRESS PERIOD NO.   35, LENGTH =   2630000.    
                            -----------------------------------------------

                              NUMBER OF TIME STEPS =    30

                               MULTIPLIER FOR DELT =     1.000

                            INITIAL TIME STEP SIZE =   87666.66    

 REUSING NON-PARAMETER GHB CELLS FROM LAST STRESS PERIOD

      2 GHB CELLS

 REUSING STREAM SEGMENT DATA FROM LAST STRESS PERIOD



            AREAL INFILTRATION RATE
 READING ON UNIT   19 WITH FORMAT: (FREE)              

            1           2           3           4           5           6           7           8           9          10
 ........................................................................................................................
   1   1.0000E-10  2.0000E-10   0.000       0.000       0.000       0.000       0.000       0.000       0.000       0.000    
   2   2.0000E-10  1.0000E-10  2.0000E-10   0.000       0.000      8.0000E-10  8.0000E-10  5.0000E-10   0.000       0.000    
   3    0.000      5.0000E-10  1.0000E-10  1.0000E-10  8.0000E-10  8.0000E-10  5.0000E-10  5.0000E-10   0.000       0.000    
   4   8.0000E-10  5.0000E-10  1.0000E-10  1.0000E-10  1.0000E-10  1.0000E-10  1.0000E-10  1.0000E-10  2.0000E-10   0.000    
   5   8.0000E-10  5.0000E-10  1.0000E-10  1.0000E-10  1.0000E-10  1.0000E-10  1.0000E-10  1.0000E-10  1.0000E-10  1.0000E-10
   6   8.0000E-10  5.0000E-10  5.0000E-10  2.0000E-10  2.0000E-10  1.0000E-10  1.0000E-10  1.0000E-10  1.0000E-10  5.0000E-10
   7   8.0000E-10  5.0000E-10  5.0000E-10  2.0000E-10  2.0000E-10  1.0000E-10  1.0000E-10  2.0000E-10  2.0000E-10   0.000    
   8    0.000      5.0000E-10  5.0000E-10  2.0000E-10  2.0000E-10  1.0000E-10  1.0000E-10  2.0000E-10  5.0000E-10   0.000    
   9    0.000      5.0000E-10  5.0000E-10  2.0000E-10  2.0000E-10  1.0000E-10  1.0000E-10  2.0000E-10  5.0000E-10   0.000    
  10    0.000      5.0000E-10  5.0000E-10  2.0000E-10  2.0000E-10  1.0000E-10  1.0000E-10  2.0000E-10  5.0000E-10  8.0000E-10
  11    0.000      1.0000E-10  1.0000E-10  1.0000E-10  1.0000E-10  1.0000E-10  1.0000E-10  2.0000E-10  5.0000E-10   0.000    
  12   1.0000E-10  1.0000E-10  1.0000E-10  1.0000E-10  1.0000E-10  1.0000E-10  1.0000E-10  1.0000E-10  2.0000E-10   0.000    
  13   1.0000E-10  1.0000E-10  2.0000E-10  2.0000E-10  2.0000E-10  2.0000E-10  2.0000E-10  1.0000E-10  1.0000E-10   0.000    
  14    0.000      2.0000E-10  5.0000E-10  5.0000E-10  5.0000E-10  5.0000E-10  5.0000E-10  2.0000E-10  1.0000E-10   0.000    
  15    0.000       0.000      8.0000E-10  8.0000E-10  8.0000E-10  8.0000E-10   0.000       0.000       0.000       0.000    

                  ET RATE =  5.000000E-09

 USING ET EXTINCTION DEPTH FROM PREVIOUS STRESS PERIOD. CURRENT PERIOD IS:      35

 USING EXTINCTION WATER CONTENT FROM PREVIOUS STRESS PERIOD. CURRENT PERIOD IS:      35

 USING AIR ENTRY PRESSURE FROM PREVIOUS STRESS PERIOD. CURRENT PERIOD IS:      35

 USING ROOT PRESSURE HEAD FROM PREVIOUS STRESS PERIOD. CURRENT PERIOD IS:      35

 USING ROOT ACTIVITY FROM PREVIOUS STRESS PERIOD. CURRENT PERIOD IS:      35

 PROCESSING AG STRESS PERIOD DATA

 READING AG STRESS PERIOD DATA

 READING IRRIGATION SEGMENT

 READING IRRIGATION WELL

 READING SUPPLEMENTAL WELL

 NO IRRPOND OR REUSING IRRPOND DATA FROM LAST STRESS PERIOD

 END PROCESSING AG STRESS PERIOD DATA OPTIONS
 
 SOLVING FOR HEAD 
                                                   Max.-Head-Change                         Max.-Flux-Residual
  Residual-Control   Outer-Iter.   Inner-Iter.     Column Row Layer    Maximum-Head-Change  Column Row Layer    Maximum-Flux-Residual          L2-NORM 
          0                 1           2             4    6     1       0.1160891873E+00       4    6    1         0.6247087999E+01      0.8549247976E+01
          0                 2           2             4    6     1       0.4825837137E-01       4    6    1         0.2619601377E+01      0.2751200308E+01
          0                 3           2             4    6     1       0.6847880321E-02       4    6    1         0.3713057946E+00      0.3930349764E+00
          0                 4           2             4    6     1       0.9730788801E-03       4    6    1         0.5272351574E-01      0.5644121245E-01
          0                 5           2             4    6     1       0.1384629863E-03       4    6    1         0.7496149064E-02      0.8131392977E-02
          0                 6           1             4    6     1       0.1972908287E-04       4    6    1         0.1067263488E-02      0.1174425136E-02

    ------------------------------------------------
       NWT REQUIRED            6 OUTER ITERATIONS 
       AND A TOTAL OF         11 INNER ITERATIONS.
    ------------------------------------------------

 NO OUTPUT CONTROL FOR STRESS PERIOD   35   TIME STEP    1
 
 SOLVING FOR HEAD 
                                                   Max.-Head-Change                         Max.-Flux-Residual
  Residual-Control   Outer-Iter.   Inner-Iter.     Column Row Layer    Maximum-Head-Change  Column Row Layer    Maximum-Flux-Residual          L2-NORM 
          0                 1           2             4    7     1       0.6493284825E-01       4    7    1         0.3428178176E+01      0.6534548268E+01
          0                 2           2             4    7     1       0.9651133092E-02       4    7    1         0.5092652900E+00      0.9364380969E+00
          0                 3           2             5    8     1      -0.1525943929E-02       5    8    1        -0.8452248239E-01      0.1688185074E+00
          0                 4           2             4    7     1       0.2019793254E-02       4    7    1         0.1115487013E+00      0.2647665662E+00
          0                 5           2             4    7     1       0.3971061924E-03       4    7    1         0.2194246696E-01      0.5128877745E-01
          0                 6           1             4    7     1       0.7802450285E-04       4    7    1         0.4313408377E-02      0.9937353726E-02

    ------------------------------------------------
       NWT REQUIRED            6 OUTER ITERATIONS 
       AND A TOTAL OF         11 INNER ITERATIONS.
    ------------------------------------------------

 NO OUTPUT CONTROL FOR STRESS PERIOD   35   TIME STEP    2
 
 SOLVING FOR HEAD 
                                                   Max.-Head-Change                         Max.-Flux-Residual
  Residual-Control   Outer-Iter.   Inner-Iter.     Column Row Layer    Maximum-Head-Change  Column Row Layer    Maximum-Flux-Residual          L2-NORM 
          0                 1           2             4    7     1       0.6360873628E-01       4    7    1         0.3358122206E+01      0.6412195733E+01
          0                 2           2             4    7     1       0.9454385693E-02       4    7    1         0.4988952620E+00      0.9184306756E+00
          0                 3           2             5    8     1      -0.1538200095E-02       5    8    1        -0.8519246850E-01      0.1712922117E+00
          0                 4           2             4    7     1       0.2015715424E-02       4    7    1         0.1113209990E+00      0.2644181800E+00
          0                 5           2             4    7     1       0.3963153972E-03       4    7    1         0.2189829964E-01      0.5122085218E-01
          0                 6           1             4    7     1       0.7787051044E-04       4    7    1         0.4304808184E-02      0.9924046721E-02

    ------------------------------------------------
       NWT REQUIRED            6 OUTER ITERATIONS 
       AND A TOTAL OF         11 INNER ITERATIONS.
    ------------------------------------------------

 NO OUTPUT CONTROL FOR STRESS PERIOD   35   TIME STEP    3
 
 SOLVING FOR HEAD 
                                                   Max.-Head-Change                         Max.-Flux-Residual
  Residual-Control   Outer-Iter.   Inner-Iter.     Column Row Layer    Maximum-Head-Change  Column Row Layer    Maximum-Flux-Residual          L2-NORM 
          0                 1           2             4    7     1       0.6231487589E-01       4    7    1         0.3289652195E+01      0.6294161076E+01
          0                 2           2             4    7     1       0.9262205423E-02       4    7    1         0.4887635572E+00      0.9009883586E+00
          0                 3           2             5    8     1      -0.1549962231E-02       5    8    1        -0.8583540730E-01      0.1736291126E+00
          0                 4           2             4    7     1       0.2011687715E-02       4    7    1         0.1110960805E+00      0.2640733959E+00
          0                 5           2             4    7     1       0.3955338405E-03       4    7    1         0.2185464636E-01      0.5115358190E-01
          0                 6           1             4    7     1       0.7771885841E-04       4    7    1         0.4296338021E-02      0.9910941231E-02

    ------------------------------------------------
       NWT REQUIRED            6 OUTER ITERATIONS 
       AND A TOTAL OF         11 INNER ITERATIONS.
    ------------------------------------------------

 NO OUTPUT CONTROL FOR STRESS PERIOD   35   TIME STEP    4
 
 SOLVING FOR HEAD 
                                                   Max.-Head-Change                         Max.-Flux-Residual
  Residual-Control   Outer-Iter.   Inner-Iter.     Column Row Layer    Maximum-Head-Change  Column Row Layer    Maximum-Flux-Residual          L2-NORM 
          0                 1           2             4    7     1       0.6105081611E-01       4    7    1         0.3222746671E+01      0.6179776010E+01
          0                 2           2             4    7     1       0.9074517845E-02       4    7    1         0.4788665755E+00      0.8840565197E+00
          0                 3           2             5    8     1      -0.1561276051E-02       5    8    1        -0.8645337114E-01      0.1759069897E+00
          0                 4           2             4    7     1       0.2007723329E-02       4    7    1         0.1108746792E+00      0.2637339427E+00
          0                 5           2             4    7     1       0.3947628394E-03       4    7    1         0.2181158079E-01      0.5108711720E-01
          0                 6           1             4    7     1       0.7757106235E-04       4    7    1         0.4288081663E-02      0.9898235858E-02

    ------------------------------------------------
       NWT REQUIRED            6 OUTER ITERATIONS 
       AND A TOTAL OF         11 INNER ITERATIONS.
    ------------------------------------------------

 NO OUTPUT CONTROL FOR STRESS PERIOD   35   TIME STEP    5
 
 SOLVING FOR HEAD 
                                                   Max.-Head-Change                         Max.-Flux-Residual
  Residual-Control   Outer-Iter.   Inner-Iter.     Column Row Layer    Maximum-Head-Change  Column Row Layer    Maximum-Flux-Residual          L2-NORM 
          0                 1           2             4    7     1       0.5981607446E-01       4    7    1         0.3157381740E+01      0.6068877788E+01
          0                 2           2             4    7     1       0.8891240067E-02       4    7    1         0.4692002009E+00      0.8676141706E+00
          0                 3           2             5    8     1      -0.1572169311E-02       5    8    1        -0.8704793931E-01      0.1781286261E+00
          0                 4           2             4    7     1       0.2003821881E-02       4    7    1         0.1106567780E+00      0.2633997350E+00
          0                 5           2             4    7     1       0.3940078853E-03       4    7    1         0.2176940653E-01      0.5102218222E-01
          0                 6           1             4    7     1       0.7742243814E-04       4    7    1         0.4279780882E-02      0.9885292327E-02

    ------------------------------------------------
       NWT REQUIRED            6 OUTER ITERATIONS 
       AND A TOTAL OF         11 INNER ITERATIONS.
    ------------------------------------------------

 NO OUTPUT CONTROL FOR STRESS PERIOD   35   TIME STEP    6
 
 SOLVING FOR HEAD 
                                                   Max.-Head-Change                         Max.-Flux-Residual
  Residual-Control   Outer-Iter.   Inner-Iter.     Column Row Layer    Maximum-Head-Change  Column Row Layer    Maximum-Flux-Residual          L2-NORM 
          0                 1           2             4    7     1       0.5861041270E-01       4    7    1         0.3093546531E+01      0.5961333400E+01
          0                 2           2             4    7     1       0.8712329550E-02       4    7    1         0.4597624597E+00      0.8516447062E+00
          0                 3           2             5    8     1      -0.1582670765E-02       5    8    1        -0.8762073239E-01      0.1802942455E+00
          0                 4           2             4    7     1       0.1999987925E-02       4    7    1         0.1104426326E+00      0.2630711564E+00
          0                 5           2             4    7     1       0.3932606731E-03       4    7    1         0.2172766627E-01      0.5095762101E-01
          0                 6           1             4    7     1       0.7728107131E-04       4    7    1         0.4271881814E-02      0.9873200665E-02

    ------------------------------------------------
       NWT REQUIRED            6 OUTER ITERATIONS 
       AND A TOTAL OF         11 INNER ITERATIONS.
    ------------------------------------------------

 NO OUTPUT CONTROL FOR STRESS PERIOD   35   TIME STEP    7
 
 SOLVING FOR HEAD 
                                                   Max.-Head-Change                         Max.-Flux-Residual
  Residual-Control   Outer-Iter.   Inner-Iter.     Column Row Layer    Maximum-Head-Change  Column Row Layer    Maximum-Flux-Residual          L2-NORM 
          0                 1           2             4    7     1       0.5743328639E-01       4    7    1         0.3031213784E+01      0.5856983208E+01
          0                 2           2             4    7     1       0.8537697942E-02       4    7    1         0.4505489179E+00      0.8361278101E+00
          0                 3           2             5    8     1      -0.1592806504E-02       5    8    1        -0.8817322356E-01      0.1824057955E+00
          0                 4           2             4    7     1       0.1996222347E-02       4    7    1         0.1102322952E+00      0.2627481517E+00
          0                 5           2             4    7     1       0.3925334289E-03       4    7    1         0.2168703505E-01      0.5089506793E-01
          0                 6           1             4    7     1       0.7713676103E-04       4    7    1         0.4263821913E-02      0.9860575375E-02

    ------------------------------------------------
       NWT REQUIRED            6 OUTER ITERATIONS 
       AND A TOTAL OF         11 INNER ITERATIONS.
    ------------------------------------------------

 NO OUTPUT CONTROL FOR STRESS PERIOD   35   TIME STEP    8
 
 SOLVING FOR HEAD 
                                                   Max.-Head-Change                         Max.-Flux-Residual
  Residual-Control   Outer-Iter.   Inner-Iter.     Column Row Layer    Maximum-Head-Change  Column Row Layer    Maximum-Flux-Residual          L2-NORM 
          0                 1           2             4    7     1       0.5628413048E-01       4    7    1         0.2970354993E+01      0.5755694591E+01
          0                 2           2             4    7     1       0.8367254987E-02       4    7    1         0.4415550271E+00      0.8210460791E+00
          0                 3           2             5    8     1      -0.1602598161E-02       5    8    1        -0.8870662502E-01      0.1844649965E+00
          0                 4           2             4    7     1       0.1992525740E-02       4    7    1         0.1100258013E+00      0.2624309705E+00
          0                 5           2             4    7     1       0.3918163549E-03       4    7    1         0.2164697287E-01      0.5083319727E-01
          0                 6           1             4    7     1       0.7699766146E-04       4    7    1         0.4256051016E-02      0.9848520547E-02

    ------------------------------------------------
       NWT REQUIRED            6 OUTER ITERATIONS 
       AND A TOTAL OF         11 INNER ITERATIONS.
    ------------------------------------------------

 NO OUTPUT CONTROL FOR STRESS PERIOD   35   TIME STEP    9
 
 SOLVING FOR HEAD 
                                                   Max.-Head-Change                         Max.-Flux-Residual
  Residual-Control   Outer-Iter.   Inner-Iter.     Column Row Layer    Maximum-Head-Change  Column Row Layer    Maximum-Flux-Residual          L2-NORM 
          0                 1           2             4    7     1       0.5516237319E-01       4    7    1         0.2910940625E+01      0.5657346160E+01
          0                 2           2             4    7     1       0.8200912062E-02       4    7    1         0.4327762377E+00      0.8063840990E+00
          0                 3           2             5    8     1      -0.1612070414E-02       5    8    1        -0.8922233501E-01      0.1864731351E+00
          0                 4           2             4    7     1       0.1988899051E-02       4    7    1         0.1098232042E+00      0.2621196424E+00
          0                 5           2             4    7     1       0.3911110738E-03       4    7    1         0.2160756944E-01      0.5077222310E-01
          0                 6           1             4    7     1       0.7686265037E-04       4    7    1         0.4248507261E-02      0.9836883602E-02

    ------------------------------------------------
       NWT REQUIRED            6 OUTER ITERATIONS 
       AND A TOTAL OF         11 INNER ITERATIONS.
    ------------------------------------------------

 NO OUTPUT CONTROL FOR STRESS PERIOD   35   TIME STEP   10
 
 SOLVING FOR HEAD 
                                                   Max.-Head-Change                         Max.-Flux-Residual
  Residual-Control   Outer-Iter.   Inner-Iter.     Column Row Layer    Maximum-Head-Change  Column Row Layer    Maximum-Flux-Residual          L2-NORM 
          0                 1           2             4    7     1       0.5406782714E-01       4    7    1         0.2852962709E+01      0.5561816052E+01
          0                 2           2             4    7     1       0.8038631790E-02       4    7    1         0.4242108739E+00      0.7921259782E+00
          0                 3           2             5    8     1      -0.1621240315E-02       5    8    1        -0.8972130934E-01      0.1884311224E+00
          0                 4           2             4    7     1       0.1985343110E-02       4    7    1         0.1096244729E+00      0.2618140163E+00
          0                 5           2             4    7     1       0.3904233109E-03       4    7    1         0.2156925506E-01      0.5071293191E-01
          0                 6           1             4    7     1       0.7672744828E-04       4    7    1         0.4240975441E-02      0.9825087206E-02

    ------------------------------------------------
       NWT REQUIRED            6 OUTER ITERATIONS 
       AND A TOTAL OF         11 INNER ITERATIONS.
    ------------------------------------------------

 NO OUTPUT CONTROL FOR STRESS PERIOD   35   TIME STEP   11
 
 SOLVING FOR HEAD 
                                                   Max.-Head-Change                         Max.-Flux-Residual
  Residual-Control   Outer-Iter.   Inner-Iter.     Column Row Layer    Maximum-Head-Change  Column Row Layer    Maximum-Flux-Residual          L2-NORM 
          0                 1           2             4    7     1       0.5299961287E-01       4    7    1         0.2796374812E+01      0.5468992883E+01
          0                 2           2             4    7     1       0.7880283460E-02       4    7    1         0.4158520456E+00      0.7782571783E+00
          0                 3           2             5    8     1      -0.1630126117E-02       5    8    1        -0.9020458073E-01      0.1903410243E+00
          0                 4           2             4    7     1       0.1981857363E-02       4    7    1         0.1094297881E+00      0.2615142488E+00
          0                 5           2             4    7     1       0.3897473816E-03       4    7    1         0.2153148551E-01      0.5065453088E-01
          0                 6           1             4    7     1       0.7659634037E-04       4    7    1         0.4233650629E-02      0.9813707392E-02

    ------------------------------------------------
       NWT REQUIRED            6 OUTER ITERATIONS 
       AND A TOTAL OF         11 INNER ITERATIONS.
    ------------------------------------------------

 NO OUTPUT CONTROL FOR STRESS PERIOD   35   TIME STEP   12
 
 SOLVING FOR HEAD 
                                                   Max.-Head-Change                         Max.-Flux-Residual
  Residual-Control   Outer-Iter.   Inner-Iter.     Column Row Layer    Maximum-Head-Change  Column Row Layer    Maximum-Flux-Residual          L2-NORM 
          0                 1           2             4    7     1       0.5195739674E-01       4    7    1         0.2741160544E+01      0.5378773526E+01
          0                 2           2             4    7     1       0.7725811117E-02       4    7    1         0.4076970129E+00      0.7647640507E+00
          0                 3           2             5    8     1      -0.1638742502E-02       5    8    1        -0.9067297174E-01      0.1922035713E+00
          0                 4           2             4    7     1       0.1978442082E-02       4    7    1         0.1092390178E+00      0.2612202683E+00
          0                 5           2             4    7     1       0.3890854879E-03       4    7    1         0.2149450048E-01      0.5059725819E-01
          0                 6           1             4    7     1       0.7646759710E-04       4    7    1         0.4226458059E-02      0.9802499834E-02

    ------------------------------------------------
       NWT REQUIRED            6 OUTER ITERATIONS 
       AND A TOTAL OF         11 INNER ITERATIONS.
    ------------------------------------------------

 NO OUTPUT CONTROL FOR STRESS PERIOD   35   TIME STEP   13
 
 SOLVING FOR HEAD 
                                                   Max.-Head-Change                         Max.-Flux-Residual
  Residual-Control   Outer-Iter.   Inner-Iter.     Column Row Layer    Maximum-Head-Change  Column Row Layer    Maximum-Flux-Residual          L2-NORM 
          0                 1           2             4    7     1       0.5094042481E-01       4    7    1         0.2687280583E+01      0.5291043771E+01
          0                 2           2             4    7     1       0.7575099910E-02       4    7    1         0.3997398121E+00      0.7516312653E+00
          0                 3           2             5    8     1      -0.1647107092E-02       5    8    1        -0.9112747223E-01      0.1940204820E+00
          0                 4           2             4    7     1       0.1975097419E-02       4    7    1         0.1090521641E+00      0.2609321467E+00
          0                 5           2             4    7     1       0.3884358583E-03       4    7    1         0.2145820242E-01      0.5054093216E-01
          0                 6           1             4    7     1       0.7634194982E-04       4    7    1         0.4219438054E-02      0.9791574489E-02

    ------------------------------------------------
       NWT REQUIRED            6 OUTER ITERATIONS 
       AND A TOTAL OF         11 INNER ITERATIONS.
    ------------------------------------------------

 NO OUTPUT CONTROL FOR STRESS PERIOD   35   TIME STEP   14
 
 SOLVING FOR HEAD 
                                                   Max.-Head-Change                         Max.-Flux-Residual
  Residual-Control   Outer-Iter.   Inner-Iter.     Column Row Layer    Maximum-Head-Change  Column Row Layer    Maximum-Flux-Residual          L2-NORM 
          0                 1           2             4    7     1       0.4994835694E-01       4    7    1         0.2634717628E+01      0.5205727348E+01
          0                 2           2             4    7     1       0.7428095596E-02       4    7    1         0.3919776893E+00      0.7388487925E+00
          0                 3           2             5    8     1      -0.1655232348E-02       5    8    1        -0.9156878479E-01      0.1957940531E+00
          0                 4           2             4    7     1       0.1971821838E-02       4    7    1         0.1088691655E+00      0.2606496128E+00
          0                 5           2             4    7     1       0.3878010675E-03       4    7    1         0.2142273269E-01      0.5048589407E-01
          0                 6           1             4    7     1       0.7621720357E-04       4    7    1         0.4212469591E-02      0.9780630861E-02

    ------------------------------------------------
       NWT REQUIRED            6 OUTER ITERATIONS 
       AND A TOTAL OF         11 INNER ITERATIONS.
    ------------------------------------------------

 NO OUTPUT CONTROL FOR STRESS PERIOD   35   TIME STEP   15
 
 SOLVING FOR HEAD 
                                                   Max.-Head-Change                         Max.-Flux-Residual
  Residual-Control   Outer-Iter.   Inner-Iter.     Column Row Layer    Maximum-Head-Change  Column Row Layer    Maximum-Flux-Residual          L2-NORM 
          0                 1           2             4    7     1       0.4898057231E-01       4    7    1         0.2583439444E+01      0.5122720787E+01
          0                 2           2             4    7     1       0.7284704380E-02       4    7    1         0.3844057982E+00      0.7264028511E+00
          0                 3           2             5    8     1      -0.1663129367E-02       5    8    1        -0.9199752877E-01      0.1975236098E+00
          0                 4           2             4    7     1       0.1968616124E-02       4    7    1         0.1086900696E+00      0.2603727984E+00
          0                 5           2             4    7     1       0.3871792865E-03       4    7    1         0.2138799038E-01      0.5043190259E-01
          0                 6           1             4    7     1       0.7609822007E-04       4    7    1         0.4205820920E-02      0.9770329755E-02

    ------------------------------------------------
       NWT REQUIRED            6 OUTER ITERATIONS 
       AND A TOTAL OF         11 INNER ITERATIONS.
    ------------------------------------------------

 NO OUTPUT CONTROL FOR STRESS PERIOD   35   TIME STEP   16
 
 SOLVING FOR HEAD 
                                                   Max.-Head-Change                         Max.-Flux-Residual
  Residual-Control   Outer-Iter.   Inner-Iter.     Column Row Layer    Maximum-Head-Change  Column Row Layer    Maximum-Flux-Residual          L2-NORM 
          0                 1           2             4    7     1       0.4803659069E-01       4    7    1         0.2533421084E+01      0.5041947763E+01
          0                 2           2             4    7     1       0.7144850956E-02       4    7    1         0.3770202513E+00      0.7142829837E+00
          0                 3           2             5    8     1      -0.1670814761E-02       5    8    1        -0.9241464238E-01      0.1992114029E+00
          0                 4           2             4    7     1       0.1965479028E-02       4    7    1         0.1085148083E+00      0.2601015646E+00
          0                 5           2             4    7     1       0.3865709887E-03       4    7    1         0.2135400164E-01      0.5037902510E-01
          0                 6           1             4    7     1       0.7598023002E-04       4    7    1         0.4199228940E-02      0.9760026398E-02

    ------------------------------------------------
       NWT REQUIRED            6 OUTER ITERATIONS 
       AND A TOTAL OF         11 INNER ITERATIONS.
    ------------------------------------------------

 NO OUTPUT CONTROL FOR STRESS PERIOD   35   TIME STEP   17
 
 SOLVING FOR HEAD 
                                                   Max.-Head-Change                         Max.-Flux-Residual
  Residual-Control   Outer-Iter.   Inner-Iter.     Column Row Layer    Maximum-Head-Change  Column Row Layer    Maximum-Flux-Residual          L2-NORM 
          0                 1           2             4    7     1       0.4711566160E-01       4    7    1         0.2484623139E+01      0.4963316618E+01
          0                 2           2             4    7     1       0.7008423075E-02       4    7    1         0.3698151669E+00      0.7024769737E+00
          0                 3           2             5    8     1      -0.1678294361E-02       5    8    1        -0.9282044749E-01      0.2008583544E+00
          0                 4           2             4    7     1       0.1962409688E-02       4    7    1         0.1083433327E+00      0.2598358980E+00
          0                 5           2             4    7     1       0.3859751070E-03       4    7    1         0.2132070743E-01      0.5032713700E-01
          0                 6           1             4    7     1       0.7586464521E-04       4    7    1         0.4192771477E-02      0.9749916006E-02

    ------------------------------------------------
       NWT REQUIRED            6 OUTER ITERATIONS 
       AND A TOTAL OF         11 INNER ITERATIONS.
    ------------------------------------------------

 NO OUTPUT CONTROL FOR STRESS PERIOD   35   TIME STEP   18
 
 SOLVING FOR HEAD 
                                                   Max.-Head-Change                         Max.-Flux-Residual
  Residual-Control   Outer-Iter.   Inner-Iter.     Column Row Layer    Maximum-Head-Change  Column Row Layer    Maximum-Flux-Residual          L2-NORM 
          0                 1           2             4    7     1       0.4621745004E-01       4    7    1         0.2437028587E+01      0.4886752530E+01
          0                 2           2             4    7     1       0.6875367425E-02       4    7    1         0.3627878524E+00      0.6909743638E+00
          0                 3           2             5    8     1      -0.1685579039E-02       5    8    1        -0.9321555283E-01      0.2024658410E+00
          0                 4           2             4    7     1       0.1959406856E-02       4    7    1         0.1081755759E+00      0.2595755733E+00
          0                 5           2             4    7     1       0.3853926510E-03       4    7    1         0.2128816372E-01      0.5027636558E-01
          0                 6           1             4    7     1       0.7575112281E-04       4    7    1         0.4186429709E-02      0.9739950195E-02

    ------------------------------------------------
       NWT REQUIRED            6 OUTER ITERATIONS 
       AND A TOTAL OF         11 INNER ITERATIONS.
    ------------------------------------------------

 NO OUTPUT CONTROL FOR STRESS PERIOD   35   TIME STEP   19
 
 SOLVING FOR HEAD 
                                                   Max.-Head-Change                         Max.-Flux-Residual
  Residual-Control   Outer-Iter.   Inner-Iter.     Column Row Layer    Maximum-Head-Change  Column Row Layer    Maximum-Flux-Residual          L2-NORM 
          0                 1           2             4    7     1       0.4534121542E-01       4    7    1         0.2390598184E+01      0.4812180810E+01
          0                 2           2             4    7     1       0.6745573879E-02       4    7    1         0.3559325138E+00      0.6797649412E+00
          0                 3           2             5    8     1      -0.1692678003E-02       5    8    1        -0.9360047389E-01      0.2040349470E+00
          0                 4           2             4    7     1       0.1956468432E-02       4    7    1         0.1080114203E+00      0.2593204380E+00
          0                 5           2             4    7     1       0.3848232132E-03       4    7    1         0.2125634770E-01      0.5022668050E-01
          0                 6           1             4    7     1       0.7564120431E-04       4    7    1         0.4180288585E-02      0.9730342143E-02

    ------------------------------------------------
       NWT REQUIRED            6 OUTER ITERATIONS 
       AND A TOTAL OF         11 INNER ITERATIONS.
    ------------------------------------------------

 NO OUTPUT CONTROL FOR STRESS PERIOD   35   TIME STEP   20
 
 SOLVING FOR HEAD 
                                                   Max.-Head-Change                         Max.-Flux-Residual
  Residual-Control   Outer-Iter.   Inner-Iter.     Column Row Layer    Maximum-Head-Change  Column Row Layer    Maximum-Flux-Residual          L2-NORM 
          0                 1           2             4    7     1       0.4448650455E-01       4    7    1         0.2345308236E+01      0.4739532957E+01
          0                 2           2             4    7     1       0.6618932928E-02       4    7    1         0.3492455633E+00      0.6688283491E+00
          0                 3           2             5    8     1      -0.1699038901E-02       5    8    1        -0.9395043690E-01      0.2055658932E+00
          0                 4           2             4    7     1       0.1953589814E-02       4    7    1         0.1078507140E+00      0.2590705312E+00
          0                 5           2             4    7     1       0.3842591852E-03       4    7    1         0.2122486746E-01      0.5017723641E-01
          0                 6           1             4    7     1       0.7553557772E-04       4    7    1         0.4174393478E-02      0.9721248590E-02

    ------------------------------------------------
       NWT REQUIRED            6 OUTER ITERATIONS 
       AND A TOTAL OF         11 INNER ITERATIONS.
    ------------------------------------------------

 NO OUTPUT CONTROL FOR STRESS PERIOD   35   TIME STEP   21
 
 SOLVING FOR HEAD 
                                                   Max.-Head-Change                         Max.-Flux-Residual
  Residual-Control   Outer-Iter.   Inner-Iter.     Column Row Layer    Maximum-Head-Change  Column Row Layer    Maximum-Flux-Residual          L2-NORM 
          0                 1           2             4    7     1       0.4365266923E-01       4    7    1         0.2301132374E+01      0.4668719818E+01
          0                 2           2             4    7     1       0.6495411989E-02       4    7    1         0.3427211623E+00      0.6581742964E+00
          0                 3           2             5    8     1      -0.1705770353E-02       5    8    1        -0.9431500872E-01      0.2070609918E+00
          0                 4           2             4    7     1       0.1950778518E-02       4    7    1         0.1076936678E+00      0.2588257283E+00
          0                 5           2             4    7     1       0.3837197768E-03       4    7    1         0.2119472695E-01      0.5013029567E-01
          0                 6           1             4    7     1       0.7542699195E-04       4    7    1         0.4168329525E-02      0.9711554475E-02

    ------------------------------------------------
       NWT REQUIRED            6 OUTER ITERATIONS 
       AND A TOTAL OF         11 INNER ITERATIONS.
    ------------------------------------------------

 NO OUTPUT CONTROL FOR STRESS PERIOD   35   TIME STEP   22
 
 SOLVING FOR HEAD 
                                                   Max.-Head-Change                         Max.-Flux-Residual
  Residual-Control   Outer-Iter.   Inner-Iter.     Column Row Layer    Maximum-Head-Change  Column Row Layer    Maximum-Flux-Residual          L2-NORM 
          0                 1           2             4    7     1       0.4283920591E-01       4    7    1         0.2258034785E+01      0.4599670238E+01
          0                 2           2             4    7     1       0.6374903045E-02       4    7    1         0.3363562436E+00      0.6477812706E+00
          0                 3           2             5    8     1      -0.1712238057E-02       5    8    1        -0.9466530292E-01      0.2085207987E+00
          0                 4           2             4    7     1       0.1947820054E-02       4    7    1         0.1075337153E+00      0.2585860930E+00
          0                 5           2             4    7     1       0.3831158419E-03       4    7    1         0.2116239656E-01      0.5008344109E-01
          0                 6           1             4    7     1       0.7530269905E-04       4    7    1         0.4161726952E-02      0.9702425852E-02

    ------------------------------------------------
       NWT REQUIRED            6 OUTER ITERATIONS 
       AND A TOTAL OF         11 INNER ITERATIONS.
    ------------------------------------------------

 NO OUTPUT CONTROL FOR STRESS PERIOD   35   TIME STEP   23
 
 SOLVING FOR HEAD 
                                                   Max.-Head-Change                         Max.-Flux-Residual
  Residual-Control   Outer-Iter.   Inner-Iter.     Column Row Layer    Maximum-Head-Change  Column Row Layer    Maximum-Flux-Residual          L2-NORM 
          0                 1           2             4    7     1       0.4202431747E-01       4    7    1         0.2215950407E+01      0.4532345291E+01
          0                 2           2             4    7     1       0.6249288263E-02       4    7    1         0.3298710139E+00      0.6376013976E+00
          0                 3           2             5    8     1      -0.1718518494E-02       5    8    1        -0.9500588777E-01      0.2099422603E+00
          0                 4           2             4    7     1       0.1944939336E-02       4    7    1         0.1073722153E+00      0.2583512346E+00
          0                 5           2             4    7     1       0.3825573285E-03       4    7    1         0.2113109011E-01      0.5003734890E-01
          0                 6           1             4    7     1       0.7519566281E-04       4    7    1         0.4155728235E-02      0.9693545520E-02

    ------------------------------------------------
       NWT REQUIRED            6 OUTER ITERATIONS 
       AND A TOTAL OF         11 INNER ITERATIONS.
    ------------------------------------------------

 NO OUTPUT CONTROL FOR STRESS PERIOD   35   TIME STEP   24
 
 SOLVING FOR HEAD 
                                                   Max.-Head-Change                         Max.-Flux-Residual
  Residual-Control   Outer-Iter.   Inner-Iter.     Column Row Layer    Maximum-Head-Change  Column Row Layer    Maximum-Flux-Residual          L2-NORM 
          0                 1           2             4    7     1       0.4122615908E-01       4    7    1         0.2173580048E+01      0.4466495922E+01
          0                 2           2             4    7     1       0.6131438913E-02       4    7    1         0.3236342098E+00      0.6276846675E+00
          0                 3           2             5    8     1      -0.1724682567E-02       5    8    1        -0.9533951863E-01      0.2113340269E+00
          0                 4           2             4    7     1       0.1942249239E-02       4    7    1         0.1072217044E+00      0.2581211015E+00
          0                 5           2             4    7     1       0.3820317341E-03       4    7    1         0.2110168663E-01      0.4999182589E-01
          0                 6           1             4    7     1       0.7509889839E-04       4    7    1         0.4150312100E-02      0.9685355261E-02

    ------------------------------------------------
       NWT REQUIRED            6 OUTER ITERATIONS 
       AND A TOTAL OF         11 INNER ITERATIONS.
    ------------------------------------------------

 NO OUTPUT CONTROL FOR STRESS PERIOD   35   TIME STEP   25
 
 SOLVING FOR HEAD 
                                                   Max.-Head-Change                         Max.-Flux-Residual
  Residual-Control   Outer-Iter.   Inner-Iter.     Column Row Layer    Maximum-Head-Change  Column Row Layer    Maximum-Flux-Residual          L2-NORM 
          0                 1           2             4    7     1       0.4044927485E-01       4    7    1         0.2132344407E+01      0.4402276381E+01
          0                 2           2             4    7     1       0.6016711641E-02       4    7    1         0.3175631627E+00      0.6180106466E+00
          0                 3           2             5    8     1      -0.1730718765E-02       5    8    1        -0.9566617219E-01      0.2126942793E+00
          0                 4           2             4    7     1       0.1939626547E-02       4    7    1         0.1070749814E+00      0.2578959522E+00
          0                 5           2             4    7     1       0.3815272269E-03       4    7    1         0.2107345979E-01      0.4994837521E-01
          0                 6           1             4    7     1       0.7499740703E-04       4    7    1         0.4144637796E-02      0.9676376060E-02

    ------------------------------------------------
       NWT REQUIRED            6 OUTER ITERATIONS 
       AND A TOTAL OF         11 INNER ITERATIONS.
    ------------------------------------------------

 NO OUTPUT CONTROL FOR STRESS PERIOD   35   TIME STEP   26
 
 SOLVING FOR HEAD 
                                                   Max.-Head-Change                         Max.-Flux-Residual
  Residual-Control   Outer-Iter.   Inner-Iter.     Column Row Layer    Maximum-Head-Change  Column Row Layer    Maximum-Flux-Residual          L2-NORM 
          0                 1           2             4    7     1       0.3969305180E-01       4    7    1         0.2092210797E+01      0.4339640075E+01
          0                 2           2             4    7     1       0.5905015150E-02       4    7    1         0.3116530053E+00      0.6085728124E+00
          0                 3           2             5    8     1      -0.1736621798E-02       5    8    1        -0.9598555836E-01      0.2140235566E+00
          0                 4           2             4    7     1       0.1937066736E-02       4    7    1         0.1069317943E+00      0.2576753470E+00
          0                 5           2             4    7     1       0.3810339224E-03       4    7    1         0.2104586381E-01      0.4990569406E-01
          0                 6           1             4    7     1       0.7489968951E-04       4    7    1         0.4139174084E-02      0.9667768919E-02

    ------------------------------------------------
       NWT REQUIRED            6 OUTER ITERATIONS 
       AND A TOTAL OF         11 INNER ITERATIONS.
    ------------------------------------------------

 NO OUTPUT CONTROL FOR STRESS PERIOD   35   TIME STEP   27
 
 SOLVING FOR HEAD 
                                                   Max.-Head-Change                         Max.-Flux-Residual
  Residual-Control   Outer-Iter.   Inner-Iter.     Column Row Layer    Maximum-Head-Change  Column Row Layer    Maximum-Flux-Residual          L2-NORM 
          0                 1           2             4    7     1       0.3895690366E-01       4    7    1         0.2053147701E+01      0.4278529696E+01
          0                 2           2             4    7     1       0.5796264172E-02       4    7    1         0.3058991887E+00      0.5993631348E+00
          0                 3           2             5    8     1      -0.1742403218E-02       5    8    1        -0.9629832463E-01      0.2153220552E+00
          0                 4           2             4    7     1       0.1934569064E-02       4    7    1         0.1067921001E+00      0.2574592538E+00
          0                 5           2             4    7     1       0.3805500631E-03       4    7    1         0.2101880136E-01      0.4986354712E-01
          0                 6           1             4    7     1       0.7480594213E-04       4    7    1         0.4133931715E-02      0.9659552628E-02

    ------------------------------------------------
       NWT REQUIRED            6 OUTER ITERATIONS 
       AND A TOTAL OF         11 INNER ITERATIONS.
    ------------------------------------------------

 NO OUTPUT CONTROL FOR STRESS PERIOD   35   TIME STEP   28
 
 SOLVING FOR HEAD 
                                                   Max.-Head-Change                         Max.-Flux-Residual
  Residual-Control   Outer-Iter.   Inner-Iter.     Column Row Layer    Maximum-Head-Change  Column Row Layer    Maximum-Flux-Residual          L2-NORM 
          0                 1           2             4    7     1       0.3823999958E-01       4    7    1         0.2015110479E+01      0.4218897130E+01
          0                 2           2             4    7     1       0.5690339500E-02       4    7    1         0.3002953340E+00      0.5903747081E+00
          0                 3           2             5    8     1      -0.1748064082E-02       5    8    1        -0.9660452950E-01      0.2165914135E+00
          0                 4           2             4    7     1       0.1932131816E-02       4    7    1         0.1066558003E+00      0.2572476734E+00
          0                 5           2             4    7     1       0.3800733447E-03       4    7    1         0.2099214460E-01      0.4982167721E-01
          0                 6           1             4    7     1       0.7471805455E-04       4    7    1         0.4129014804E-02      0.9652002115E-02

    ------------------------------------------------
       NWT REQUIRED            6 OUTER ITERATIONS 
       AND A TOTAL OF         11 INNER ITERATIONS.
    ------------------------------------------------

 NO OUTPUT CONTROL FOR STRESS PERIOD   35   TIME STEP   29
 
 SOLVING FOR HEAD 
                                                   Max.-Head-Change                         Max.-Flux-Residual
  Residual-Control   Outer-Iter.   Inner-Iter.     Column Row Layer    Maximum-Head-Change  Column Row Layer    Maximum-Flux-Residual          L2-NORM 
          0                 1           2             4    7     1       0.3754194448E-01       4    7    1         0.1978078253E+01      0.4160690304E+01
          0                 2           2             4    7     1       0.5587182122E-02       4    7    1         0.2948383584E+00      0.5816005015E+00
          0                 3           2             5    8     1      -0.1753614628E-02       5    8    1        -0.9690474068E-01      0.2178322739E+00
          0                 4           2             4    7     1       0.1929753431E-02       4    7    1         0.1065228084E+00      0.2570404345E+00
          0                 5           2             4    7     1       0.3796171492E-03       4    7    1         0.2096663166E-01      0.4978189535E-01
          0                 6           1             4    7     1       0.7462515578E-04       4    7    1         0.4123823718E-02      0.9643640846E-02

    ------------------------------------------------
       NWT REQUIRED            6 OUTER ITERATIONS 
       AND A TOTAL OF         11 INNER ITERATIONS.
    ------------------------------------------------

 NO OUTPUT CONTROL FOR STRESS PERIOD   35   TIME STEP   30



 STREAM LISTING     PERIOD     35   STEP       30

 LAYER ROW COL. STREAM  RCH.  FLOW INTO     FLOW TO   FLOW OUT OF   OVRLND.     DIRECT     STREAM       STREAM     STREAM     STREAM   STREAMBED  STREAMBED
                SEG.NO.  NO.  STRM. RCH.    AQUIFER    STRM. RCH.    RUNOFF     PRECIP       ET          HEAD       DEPTH      WIDTH   CONDCTNC.   GRADIENT

   1    1    1     1     1    1.3125E+01  1.7336E-01   1.2951E+01  0.000E+00  0.000E+00  0.000E+00  1.09402E+03  9.718E-01  9.699E+00  4.365E-02  1.324E+00
   1    2    2     1     2    1.2951E+01  2.6707E-01   1.2684E+01  0.000E+00  0.000E+00  0.000E+00  1.08903E+03  9.671E-01  9.617E+00  6.732E-02  1.322E+00
   1    3    3     1     3    1.2684E+01  2.2640E-01   1.2458E+01  0.000E+00  0.000E+00  0.000E+00  1.08338E+03  9.616E-01  9.525E+00  5.715E-02  1.321E+00
   1    3    4     1     4    1.2458E+01  2.0736E-01   1.2250E+01  0.000E+00  0.000E+00  0.000E+00  1.07836E+03  9.568E-01  9.443E+00  5.241E-02  1.319E+00
   1    4    5     2     1    1.0250E+01  2.8870E-01   9.9617E+00  0.000E+00  0.000E+00  0.000E+00  1.07264E+03  7.013E-01  1.200E+01  7.800E-02  1.234E+00
   1    5    6     2     2    9.9617E+00  2.2144E-01   9.7403E+00  0.000E+00  0.000E+00  0.000E+00  1.06720E+03  6.906E-01  1.200E+01  6.000E-02  1.230E+00
   1    6    6     2     3    9.7403E+00  2.2088E-01   9.5194E+00  0.000E+00  0.000E+00  0.000E+00  1.06247E+03  6.813E-01  1.200E+01  6.000E-02  1.227E+00
   1    7    6     2     4    9.5194E+00  2.2031E-01   9.2991E+00  0.000E+00  0.000E+00  0.000E+00  1.05775E+03  6.719E-01  1.200E+01  6.000E-02  1.224E+00
   1    8    6     2     5    9.2991E+00  2.1974E-01   9.0793E+00  0.000E+00  0.000E+00  0.000E+00  1.05302E+03  6.624E-01  1.200E+01  6.000E-02  1.221E+00
   1    3    5     3     1    2.0000E+00  2.8252E-01   1.7175E+00  0.000E+00  0.000E+00  0.000E+00  1.07555E+03  1.909E+00  9.636E+00  7.227E-02  1.955E+00
   1    3    6     3     2    1.7175E+00  2.4905E-01   1.4684E+00  0.000E+00  0.000E+00  0.000E+00  1.07264E+03  1.727E+00  8.909E+00  6.682E-02  1.864E+00
   1    3    7     3     3    1.4684E+00  1.9718E-01   1.2712E+00  0.000E+00  0.000E+00  0.000E+00  1.06987E+03  1.555E+00  8.218E+00  5.547E-02  1.777E+00
   1    4    8     3     4    1.2712E+00  2.2567E-01   1.0456E+00  0.000E+00  0.000E+00  0.000E+00  1.06682E+03  1.364E+00  7.455E+00  6.709E-02  1.682E+00
   1    5    8     3     5    1.0456E+00  1.5790E-01   8.8768E-01  0.000E+00  0.000E+00  0.000E+00  1.06362E+03  1.164E+00  6.655E+00  4.991E-02  1.582E+00
   1    6    8     3     6    8.8768E-01  5.5980E-02   8.3170E-01  0.000E+00  0.000E+00  0.000E+00  1.06158E+03  1.036E+00  6.145E+00  1.844E-02  1.518E+00
   1    5   10     4     1    1.0000E+01  9.0919E-02   9.9091E+00  0.000E+00  0.000E+00  0.000E+00  1.07836E+03  6.368E-01  1.000E+01  2.500E-02  1.212E+00
   1    5    9     4     2    9.9091E+00  1.8158E-01   9.7275E+00  0.000E+00  0.000E+00  0.000E+00  1.07154E+03  6.315E-01  1.000E+01  5.000E-02  1.211E+00
   1    6    8     4     3    9.7275E+00  1.2689E-01   9.6006E+00  0.000E+00  0.000E+00  0.000E+00  1.06381E+03  6.256E-01  1.000E+01  3.500E-02  1.209E+00
   1    6    8     5     1    1.0432E+01  2.2686E-01   1.0205E+01  0.000E+00  0.000E+00  0.000E+00  1.05868E+03  6.790E-01  1.542E+01  6.166E-02  1.226E+00
   1    7    7     5     2    1.0205E+01  2.7894E-01   9.9265E+00  0.000E+00  0.000E+00  0.000E+00  1.05417E+03  6.732E-01  1.519E+01  7.594E-02  1.224E+00
   1    8    7     5     3    9.9265E+00  1.9221E-01   9.7343E+00  0.000E+00  0.000E+00  0.000E+00  1.04992E+03  6.676E-01  1.497E+01  5.241E-02  1.223E+00
   1    8    6     5     4    9.7343E+00  1.3577E-01   9.5985E+00  0.000E+00  0.000E+00  0.000E+00  1.04691E+03  6.637E-01  1.482E+01  3.706E-02  1.221E+00
   1    9    6     6     1    1.7958E+01  2.3983E-01   1.7719E+01  0.000E+00  0.000E+00  0.000E+00  1.04372E+03  9.972E-01  1.200E+01  6.000E-02  1.332E+00
   1   10    7     6     2    1.7719E+01  2.3935E-01   1.7479E+01  0.000E+00  0.000E+00  0.000E+00  1.03917E+03  9.892E-01  1.200E+01  6.000E-02  1.330E+00
   1   11    7     6     3    1.7479E+01  2.3886E-01   1.7240E+01  0.000E+00  0.000E+00  0.000E+00  1.03462E+03  9.811E-01  1.200E+01  6.000E-02  1.327E+00
   1   12    7     6     4    1.7240E+01  2.3838E-01   1.7002E+01  0.000E+00  0.000E+00  0.000E+00  1.03006E+03  9.730E-01  1.200E+01  6.000E-02  1.324E+00
   1   13    7     6     5    1.7002E+01  8.7662E-03   1.6993E+01  0.000E+00  0.000E+00  0.000E+00  1.02688E+03  9.687E-01  1.200E+01  2.400E-02  1.218E-01
   1   14    9     7     1    1.5000E+02  1.3953E+00   1.4860E+02  0.000E+00  0.000E+00  0.000E+00  1.03987E+03  2.288E+00  5.529E+01  5.593E-01  8.316E-01
   1   13    8     7     2    1.4860E+02  2.0190E+00   1.4659E+02  0.000E+00  0.000E+00  0.000E+00  1.03478E+03  2.278E+00  5.525E+01  6.147E-01  1.095E+00
   1   13    7     7     3    1.4659E+02  1.7728E+00   1.4481E+02  0.000E+00  0.000E+00  0.000E+00  1.02969E+03  2.268E+00  5.521E+01  5.583E-01  1.058E+00
   1   13    6     8     1    1.6181E+02  1.1674E+00   1.6064E+02  0.000E+00  0.000E+00  0.000E+00  1.02477E+03  2.894E+00  4.196E+01  4.276E-01  9.100E-01
   1   13    5     8     2    1.6064E+02  4.0688E-01   1.6023E+02  0.000E+00  0.000E+00  0.000E+00  1.01851E+03  2.889E+00  4.189E+01  4.268E-01  3.177E-01
   1   13    4     8     3    1.6023E+02 -1.6452E+00   1.6188E+02  0.000E+00  0.000E+00  0.000E+00  1.01227E+03  2.893E+00  4.195E+01  4.275E+00 -1.283E-01
   1   13    3     8     4    1.6188E+02 -3.2535E+00   1.6513E+02  0.000E+00  0.000E+00  0.000E+00  1.00603E+03  2.909E+00  4.219E+01  4.299E+00 -2.523E-01
   1   13    2     8     5    1.6513E+02 -2.4654E+00   1.6760E+02  0.000E+00  0.000E+00  0.000E+00  9.99803E+02  2.928E+00  4.246E+01  4.327E+00 -1.899E-01
   1   13    1     8     6    1.6760E+02 -1.9377E+00   1.6953E+02  0.000E+00  0.000E+00  0.000E+00  9.94818E+02  2.943E+00  4.267E+01  2.609E+00 -2.476E-01
   1    8    6     9     1    7.1944E-01  0.0000E+00   7.1944E-01  0.000E+00  0.000E+00  0.000E+00  1.07922E+03  4.672E-01  4.000E+00  0.000E+00  1.156E+00
   1    8    5     9     2    7.1944E-01  0.0000E+00   7.1944E-01  0.000E+00  0.000E+00  0.000E+00  1.07872E+03  4.672E-01  4.000E+00  0.000E+00  1.156E+00





UNSATURATED ZONE PACKAGE VOLUMETRIC BUDGET FOR  TIME STEP    30 STRESS PERIOD   35
  ------------------------------------------------------------------------------



     CUMULATIVE VOLUMES      L**3       RATES FOR THIS TIME STEP      L**3/T
     ------------------                 ------------------------

           IN:                                      IN:
           ---                                      ---
        INFILTRATION =  1748270888.8586          INFILTRATION =           1.5670

          OUT:                                     OUT:
          ----                                     ----
              UZF ET =  1281005275.4061                UZF ET =           1.5675
        UZF RECHARGE =    66417276.5461          UZF RECHARGE =           2.8156

            IN - OUT =   400848336.9064              IN - OUT =          -2.8162

          STORAGE:                                 STORAGE:
          --------                                 --------
      STORAGE CHANGE =   400852903.7236        STORAGE CHANGE =          -2.8162

 PERCENT DISCREPANCY IS DIFFERENCE BETWEEN IN-OUT MINUS CHANGE IN STORAGE
 DIVIDED BY THE AVERAGE OF IN AND OUT TIMES 100

 PERCENT DISCREPANCY =          -0.00     PERCENT DISCREPANCY =           0.00






1
  VOLUMETRIC BUDGET FOR AGRICULTURAL FIELDS AT  END OF TIME STEP   30, STRESS PERIOD  35
  ------------------------------------------------------------------------------

     CUMULATIVE VOLUMES      L**3       RATES FOR THIS TIME STEP      L**3/T
     ------------------                 ------------------------

           IN:                                      IN:
           ---                                      ---
               AG WELLS  =  1101049344.0000                 AG WELLS  =           0.0000
      DIVERSION SEGMENTS =   571557568.0000        DIVERSION SEGMENTS =           0.7194
       IRRIGATION PONDS  =           0.0000         IRRIGATION PONDS  =           0.0000
           GW IRRIGATION =           0.0000             GW IRRIGATION =           0.0000
           SW IRRIGATION =           0.0000             SW IRRIGATION =           0.0000
        SYSTEM LOSSES GW =           0.0000          SYSTEM LOSSES GW =           0.0000
        SYSTEM LOSSES SW =           0.0000          SYSTEM LOSSES SW =           0.0000

                TOTAL IN =  1672606976.0000                  TOTAL IN =           0.7194

          OUT:                                     OUT:
          ----                                     ----
               AG WELLS  =           0.0000                 AG WELLS  =           0.0000
      DIVERSION SEGMENTS =           0.0000        DIVERSION SEGMENTS =           0.0000
       IRRIGATION PONDS  =           0.0000         IRRIGATION PONDS  =           0.0000
           GW IRRIGATION =  1101049344.0000             GW IRRIGATION =           0.0000
           SW IRRIGATION =   571569024.0000             SW IRRIGATION =           0.7195
        SYSTEM LOSSES GW =           0.0000          SYSTEM LOSSES GW =           0.0000
        SYSTEM LOSSES SW =           0.0000          SYSTEM LOSSES SW =           0.0000

               TOTAL OUT =  1672618368.0000                 TOTAL OUT =           0.7195

                IN - OUT =      -11392.0000                  IN - OUT =      -1.4365E-05

     PERCENT DISCREPANCY =          -0.00         PERCENT DISCREPANCY =          -0.00



1
  VOLUMETRIC BUDGET FOR ENTIRE MODEL AT END OF TIME STEP   30, STRESS PERIOD  35
  ------------------------------------------------------------------------------

     CUMULATIVE VOLUMES      L**3       RATES FOR THIS TIME STEP      L**3/T
     ------------------                 ------------------------

           IN:                                      IN:
           ---                                      ---
             STORAGE     =  1640602880.0000               STORAGE     =           9.6274
       CONSTANT HEAD     =           0.0000         CONSTANT HEAD     =           0.0000
     HEAD DEP BOUNDS     =    25822850.0000       HEAD DEP BOUNDS     =           0.2898
      STREAM LEAKAGE     =  1070967424.0000        STREAM LEAKAGE     =          12.1733
        UZF RECHARGE     =    66417264.0000          UZF RECHARGE     =           2.8156
               GW ET     =           0.0000                 GW ET     =           0.0000
     SURFACE LEAKAGE     =           0.0000       SURFACE LEAKAGE     =           0.0000
           AG WELLS      =           0.0000             AG WELLS      =           0.0000

                TOTAL IN =  2803810304.0000                  TOTAL IN =          24.9061

          OUT:                                     OUT:
          ----                                     ----
             STORAGE     =   791621952.0000               STORAGE     =          15.3124
       CONSTANT HEAD     =           0.0000         CONSTANT HEAD     =           0.0000
     HEAD DEP BOUNDS     =    25759926.0000       HEAD DEP BOUNDS     =           0.2873
      STREAM LEAKAGE     =   885371328.0000        STREAM LEAKAGE     =           9.3018
        UZF RECHARGE     =           0.0000          UZF RECHARGE     =           0.0000
               GW ET     =           0.0000                 GW ET     =           0.0000
     SURFACE LEAKAGE     =           0.0000       SURFACE LEAKAGE     =           0.0000
           AG WELLS      =  1101049344.0000             AG WELLS      =           0.0000

               TOTAL OUT =  2803802624.0000                 TOTAL OUT =          24.9015

                IN - OUT =        7680.0000                  IN - OUT =       4.5776E-03

     PERCENT DISCREPANCY =           0.00         PERCENT DISCREPANCY =           0.02






         TIME SUMMARY AT END OF TIME STEP   30 IN STRESS PERIOD   35
                    SECONDS     MINUTES      HOURS       DAYS        YEARS
                    -----------------------------------------------------------
   TIME STEP LENGTH  87667.      1461.1      24.352      1.0147     2.77799E-03
 STRESS PERIOD TIME 2.63000E+06  43833.      730.56      30.440     8.33397E-02
         TOTAL TIME 8.95061E+07 1.49177E+06  24863.      1036.0      2.8363    
1
1
                            STRESS PERIOD NO.   36, LENGTH =   2630000.    
                            -----------------------------------------------

                              NUMBER OF TIME STEPS =    30

                               MULTIPLIER FOR DELT =     1.000

                            INITIAL TIME STEP SIZE =   87666.66    

 REUSING NON-PARAMETER GHB CELLS FROM LAST STRESS PERIOD

      2 GHB CELLS

 REUSING STREAM SEGMENT DATA FROM LAST STRESS PERIOD



            AREAL INFILTRATION RATE
 READING ON UNIT   19 WITH FORMAT: (FREE)              

            1           2           3           4           5           6           7           8           9          10
 ........................................................................................................................
   1   1.0000E-10  2.0000E-10   0.000       0.000       0.000       0.000       0.000       0.000       0.000       0.000    
   2   2.0000E-10  1.0000E-10  2.0000E-10   0.000       0.000      8.0000E-10  8.0000E-10  5.0000E-10   0.000       0.000    
   3    0.000      5.0000E-10  1.0000E-10  1.0000E-10  8.0000E-10  8.0000E-10  5.0000E-10  5.0000E-10   0.000       0.000    
   4   8.0000E-10  5.0000E-10  1.0000E-10  1.0000E-10  1.0000E-10  1.0000E-10  1.0000E-10  1.0000E-10  2.0000E-10   0.000    
   5   8.0000E-10  5.0000E-10  1.0000E-10  1.0000E-10  1.0000E-10  1.0000E-10  1.0000E-10  1.0000E-10  1.0000E-10  1.0000E-10
   6   8.0000E-10  5.0000E-10  5.0000E-10  2.0000E-10  2.0000E-10  1.0000E-10  1.0000E-10  1.0000E-10  1.0000E-10  5.0000E-10
   7   8.0000E-10  5.0000E-10  5.0000E-10  2.0000E-10  2.0000E-10  1.0000E-10  1.0000E-10  2.0000E-10  2.0000E-10   0.000    
   8    0.000      5.0000E-10  5.0000E-10  2.0000E-10  2.0000E-10  1.0000E-10  1.0000E-10  2.0000E-10  5.0000E-10   0.000    
   9    0.000      5.0000E-10  5.0000E-10  2.0000E-10  2.0000E-10  1.0000E-10  1.0000E-10  2.0000E-10  5.0000E-10   0.000    
  10    0.000      5.0000E-10  5.0000E-10  2.0000E-10  2.0000E-10  1.0000E-10  1.0000E-10  2.0000E-10  5.0000E-10  8.0000E-10
  11    0.000      1.0000E-10  1.0000E-10  1.0000E-10  1.0000E-10  1.0000E-10  1.0000E-10  2.0000E-10  5.0000E-10   0.000    
  12   1.0000E-10  1.0000E-10  1.0000E-10  1.0000E-10  1.0000E-10  1.0000E-10  1.0000E-10  1.0000E-10  2.0000E-10   0.000    
  13   1.0000E-10  1.0000E-10  2.0000E-10  2.0000E-10  2.0000E-10  2.0000E-10  2.0000E-10  1.0000E-10  1.0000E-10   0.000    
  14    0.000      2.0000E-10  5.0000E-10  5.0000E-10  5.0000E-10  5.0000E-10  5.0000E-10  2.0000E-10  1.0000E-10   0.000    
  15    0.000       0.000      8.0000E-10  8.0000E-10  8.0000E-10  8.0000E-10   0.000       0.000       0.000       0.000    

                  ET RATE =  5.000000E-10

 USING ET EXTINCTION DEPTH FROM PREVIOUS STRESS PERIOD. CURRENT PERIOD IS:      36

 USING EXTINCTION WATER CONTENT FROM PREVIOUS STRESS PERIOD. CURRENT PERIOD IS:      36

 USING AIR ENTRY PRESSURE FROM PREVIOUS STRESS PERIOD. CURRENT PERIOD IS:      36

 USING ROOT PRESSURE HEAD FROM PREVIOUS STRESS PERIOD. CURRENT PERIOD IS:      36

 USING ROOT ACTIVITY FROM PREVIOUS STRESS PERIOD. CURRENT PERIOD IS:      36

 PROCESSING AG STRESS PERIOD DATA

 READING AG STRESS PERIOD DATA

 READING IRRIGATION SEGMENT

 READING IRRIGATION WELL

 READING SUPPLEMENTAL WELL

 NO IRRPOND OR REUSING IRRPOND DATA FROM LAST STRESS PERIOD

 END PROCESSING AG STRESS PERIOD DATA OPTIONS
 
 SOLVING FOR HEAD 
                                                   Max.-Head-Change                         Max.-Flux-Residual
  Residual-Control   Outer-Iter.   Inner-Iter.     Column Row Layer    Maximum-Head-Change  Column Row Layer    Maximum-Flux-Residual          L2-NORM 
          0                 1           2             4    7     1       0.3686208659E-01       4    7    1         0.1942016090E+01      0.4103870577E+01
          0                 2           2             4    7     1       0.5486697297E-02       4    7    1         0.2895231853E+00      0.5730344511E+00
          0                 3           2             4    7     1       0.8164904590E-03       4    7    1         0.4305228964E-01      0.8050243208E-01
          0                 4           1             4    7     1       0.1214799788E-03       4    7    1         0.6408441388E-02      0.1179477458E-01
          0                 5           1             4    7     1       0.1807080300E-04       4    7    1         0.9533068469E-03      0.1746853187E-02

    ------------------------------------------------
       NWT REQUIRED            5 OUTER ITERATIONS 
       AND A TOTAL OF          8 INNER ITERATIONS.
    ------------------------------------------------

 NO OUTPUT CONTROL FOR STRESS PERIOD   36   TIME STEP    1
 
 SOLVING FOR HEAD 
                                                   Max.-Head-Change                         Max.-Flux-Residual
  Residual-Control   Outer-Iter.   Inner-Iter.     Column Row Layer    Maximum-Head-Change  Column Row Layer    Maximum-Flux-Residual          L2-NORM 
          0                 1           2             4    7     1       0.3619950738E-01       4    7    1         0.1906876892E+01      0.4053931773E+01
          0                 2           2             4    7     1       0.5388740170E-02       4    7    1         0.2843424167E+00      0.5650322213E+00
          0                 3           2             4    7     1       0.8020053886E-03       4    7    1         0.4228508621E-01      0.7925013320E-01
          0                 4           1             4    7     1       0.1193376597E-03       4    7    1         0.6295058850E-02      0.1160618287E-01
          0                 5           1             4    7     1       0.1775390243E-04       4    7    1         0.9365341280E-03      0.1718840966E-02

    ------------------------------------------------
       NWT REQUIRED            5 OUTER ITERATIONS 
       AND A TOTAL OF          8 INNER ITERATIONS.
    ------------------------------------------------

 NO OUTPUT CONTROL FOR STRESS PERIOD   36   TIME STEP    2
 
 SOLVING FOR HEAD 
                                                   Max.-Head-Change                         Max.-Flux-Residual
  Residual-Control   Outer-Iter.   Inner-Iter.     Column Row Layer    Maximum-Head-Change  Column Row Layer    Maximum-Flux-Residual          L2-NORM 
          0                 1           2             4    7     1       0.3555399923E-01       4    7    1         0.1872647327E+01      0.4000234392E+01
          0                 2           2             4    7     1       0.5293291312E-02       4    7    1         0.2792946980E+00      0.5568845209E+00
          0                 3           2             4    7     1       0.7878890769E-03       4    7    1         0.4153748580E-01      0.7801484360E-01
          0                 4           1             4    7     1       0.1172495831E-03       4    7    1         0.6184555939E-02      0.1142190104E-01
          0                 5           1             4    7     1       0.1744498503E-04       4    7    1         0.9201851908E-03      0.1691484366E-02

    ------------------------------------------------
       NWT REQUIRED            5 OUTER ITERATIONS 
       AND A TOTAL OF          8 INNER ITERATIONS.
    ------------------------------------------------

 NO OUTPUT CONTROL FOR STRESS PERIOD   36   TIME STEP    3
 
 SOLVING FOR HEAD 
                                                   Max.-Head-Change                         Max.-Flux-Residual
  Residual-Control   Outer-Iter.   Inner-Iter.     Column Row Layer    Maximum-Head-Change  Column Row Layer    Maximum-Flux-Residual          L2-NORM 
          0                 1           2             4    7     1       0.3492484515E-01       4    7    1         0.1839289217E+01      0.3947101780E+01
          0                 2           2             4    7     1       0.5200245574E-02       4    7    1         0.2743744385E+00      0.5488785560E+00
          0                 3           2             4    7     1       0.7741260989E-03       4    7    1         0.4080866778E-01      0.7680649954E-01
          0                 4           1             4    7     1       0.1152134868E-03       4    7    1         0.6076812333E-02      0.1124185353E-01
          0                 5           1             4    7     1       0.1714371840E-04       4    7    1         0.9042423535E-03      0.1664758701E-02

    ------------------------------------------------
       NWT REQUIRED            5 OUTER ITERATIONS 
       AND A TOTAL OF          8 INNER ITERATIONS.
    ------------------------------------------------

 NO OUTPUT CONTROL FOR STRESS PERIOD   36   TIME STEP    4
 
 SOLVING FOR HEAD 
                                                   Max.-Head-Change                         Max.-Flux-Residual
  Residual-Control   Outer-Iter.   Inner-Iter.     Column Row Layer    Maximum-Head-Change  Column Row Layer    Maximum-Flux-Residual          L2-NORM 
          0                 1           2             4    7     1       0.3431163493E-01       4    7    1         0.1806780198E+01      0.3895203709E+01
          0                 2           2             4    7     1       0.5109544558E-02       4    7    1         0.2695784917E+00      0.5410583787E+00
          0                 3           2             4    7     1       0.7607081221E-03       4    7    1         0.4009818091E-01      0.7562634940E-01
          0                 4           1             4    7     1       0.1132281786E-03       4    7    1         0.5971763755E-02      0.1106599403E-01
          0                 5           1             4    7     1       0.1684993172E-04       4    7    1         0.8886964238E-03      0.1638745815E-02

    ------------------------------------------------
       NWT REQUIRED            5 OUTER ITERATIONS 
       AND A TOTAL OF          8 INNER ITERATIONS.
    ------------------------------------------------

 NO OUTPUT CONTROL FOR STRESS PERIOD   36   TIME STEP    5
 
 SOLVING FOR HEAD 
                                                   Max.-Head-Change                         Max.-Flux-Residual
  Residual-Control   Outer-Iter.   Inner-Iter.     Column Row Layer    Maximum-Head-Change  Column Row Layer    Maximum-Flux-Residual          L2-NORM 
          0                 1           2             4    7     1       0.3371397062E-01       4    7    1         0.1775099269E+01      0.3844498902E+01
          0                 2           2             4    7     1       0.5021128998E-02       4    7    1         0.2649037357E+00      0.5334179500E+00
          0                 3           2             4    7     1       0.7476263187E-03       4    7    1         0.3940555969E-01      0.7447346770E-01
          0                 4           1             4    7     1       0.1112923433E-03       4    7    1         0.5869340903E-02      0.1089418536E-01
          0                 5           1             4    7     1       0.1656342989E-04       4    7    1         0.8735371066E-03      0.1613150308E-02

    ------------------------------------------------
       NWT REQUIRED            5 OUTER ITERATIONS 
       AND A TOTAL OF          8 INNER ITERATIONS.
    ------------------------------------------------

 NO OUTPUT CONTROL FOR STRESS PERIOD   36   TIME STEP    6
 
 SOLVING FOR HEAD 
                                                   Max.-Head-Change                         Max.-Flux-Residual
  Residual-Control   Outer-Iter.   Inner-Iter.     Column Row Layer    Maximum-Head-Change  Column Row Layer    Maximum-Flux-Residual          L2-NORM 
          0                 1           2             4    7     1       0.3313119747E-01       4    7    1         0.1744211363E+01      0.3794942316E+01
          0                 2           2             4    7     1       0.4934903772E-02       4    7    1         0.2603450853E+00      0.5259507528E+00
          0                 3           2             4    7     1       0.7348668533E-03       4    7    1         0.3873006447E-01      0.7334691268E-01
          0                 4           1             4    7     1       0.1094039669E-03       4    7    1         0.5769436150E-02      0.1072628598E-01
          0                 5           1             4    7     1       0.1628391805E-04       4    7    1         0.8587486609E-03      0.1588227013E-02

    ------------------------------------------------
       NWT REQUIRED            5 OUTER ITERATIONS 
       AND A TOTAL OF          8 INNER ITERATIONS.
    ------------------------------------------------

 NO OUTPUT CONTROL FOR STRESS PERIOD   36   TIME STEP    7
 
 SOLVING FOR HEAD 
                                                   Max.-Head-Change                         Max.-Flux-Residual
  Residual-Control   Outer-Iter.   Inner-Iter.     Column Row Layer    Maximum-Head-Change  Column Row Layer    Maximum-Flux-Residual          L2-NORM 
          0                 1           2             4    7     1       0.3256295971E-01       4    7    1         0.1714097378E+01      0.3746505957E+01
          0                 2           2             4    7     1       0.4850816675E-02       4    7    1         0.2558997824E+00      0.5186528678E+00
          0                 3           2             4    7     1       0.7224220645E-03       4    7    1         0.3807128657E-01      0.7224610874E-01
          0                 4           1             4    7     1       0.1075619245E-03       4    7    1         0.5671989788E-02      0.1056221813E-01
          0                 5           1             4    7     1       0.1601123160E-04       4    7    1         0.8443223728E-03      0.1563871922E-02

    ------------------------------------------------
       NWT REQUIRED            5 OUTER ITERATIONS 
       AND A TOTAL OF          8 INNER ITERATIONS.
    ------------------------------------------------

 NO OUTPUT CONTROL FOR STRESS PERIOD   36   TIME STEP    8
 
 SOLVING FOR HEAD 
                                                   Max.-Head-Change                         Max.-Flux-Residual
  Residual-Control   Outer-Iter.   Inner-Iter.     Column Row Layer    Maximum-Head-Change  Column Row Layer    Maximum-Flux-Residual          L2-NORM 
          0                 1           2             4    7     1       0.3200864446E-01       4    7    1         0.1684724469E+01      0.3699147059E+01
          0                 2           2             4    7     1       0.4768779015E-02       4    7    1         0.2515630689E+00      0.5115182486E+00
          0                 3           2             4    7     1       0.7102790964E-03       4    7    1         0.3742853780E-01      0.7117015355E-01
          0                 4           1             4    7     1       0.1057643502E-03       4    7    1         0.5576901936E-02      0.1040184065E-01
          0                 5           1             4    7     1       0.1574509920E-04       4    7    1         0.8302436941E-03      0.1540065190E-02

    ------------------------------------------------
       NWT REQUIRED            5 OUTER ITERATIONS 
       AND A TOTAL OF          8 INNER ITERATIONS.
    ------------------------------------------------

 NO OUTPUT CONTROL FOR STRESS PERIOD   36   TIME STEP    9
 
 SOLVING FOR HEAD 
                                                   Max.-Head-Change                         Max.-Flux-Residual
  Residual-Control   Outer-Iter.   Inner-Iter.     Column Row Layer    Maximum-Head-Change  Column Row Layer    Maximum-Flux-Residual          L2-NORM 
          0                 1           2             4    7     1       0.3146819989E-01       4    7    1         0.1656090245E+01      0.3652839453E+01
          0                 2           2             4    7     1       0.4688780994E-02       4    7    1         0.2473345039E+00      0.5045431891E+00
          0                 3           2             4    7     1       0.6984362081E-03       4    7    1         0.3680173408E-01      0.7011853792E-01
          0                 4           1             4    7     1       0.1040109454E-03       4    7    1         0.5484158079E-02      0.1024508518E-01
          0                 5           1             4    7     1       0.1548547180E-04       4    7    1         0.8165101981E-03      0.1516795610E-02

    ------------------------------------------------
       NWT REQUIRED            5 OUTER ITERATIONS 
       AND A TOTAL OF          8 INNER ITERATIONS.
    ------------------------------------------------

 NO OUTPUT CONTROL FOR STRESS PERIOD   36   TIME STEP   10
 
 SOLVING FOR HEAD 
                                                   Max.-Head-Change                         Max.-Flux-Residual
  Residual-Control   Outer-Iter.   Inner-Iter.     Column Row Layer    Maximum-Head-Change  Column Row Layer    Maximum-Flux-Residual          L2-NORM 
          0                 1           2             4    7     1       0.3094076607E-01       4    7    1         0.1628148292E+01      0.3607540206E+01
          0                 2           2             4    7     1       0.4610699128E-02       4    7    1         0.2432074444E+00      0.4977213823E+00
          0                 3           2             4    7     1       0.6868756389E-03       4    7    1         0.3618991943E-01      0.6909029804E-01
          0                 4           1             4    7     1       0.1022991530E-03       4    7    1         0.5393620771E-02      0.1009180893E-01
          0                 5           1             4    7     1       0.1523197989E-04       4    7    1         0.8031020648E-03      0.1494042449E-02

    ------------------------------------------------
       NWT REQUIRED            5 OUTER ITERATIONS 
       AND A TOTAL OF          8 INNER ITERATIONS.
    ------------------------------------------------

 NO OUTPUT CONTROL FOR STRESS PERIOD   36   TIME STEP   11
 
 SOLVING FOR HEAD 
                                                   Max.-Head-Change                         Max.-Flux-Residual
  Residual-Control   Outer-Iter.   Inner-Iter.     Column Row Layer    Maximum-Head-Change  Column Row Layer    Maximum-Flux-Residual          L2-NORM 
          0                 1           2             4    7     1       0.3042632507E-01       4    7    1         0.1600898137E+01      0.3563226376E+01
          0                 2           2             4    7     1       0.4534528824E-02       4    7    1         0.2391817025E+00      0.4910496543E+00
          0                 3           2             4    7     1       0.6755964428E-03       4    7    1         0.3559305229E-01      0.6808496585E-01
          0                 4           1             4    7     1       0.1006287964E-03       4    7    1         0.5305281752E-02      0.9941941839E-02
          0                 5           1             4    7     1       0.1498459193E-04       4    7    1         0.7900177575E-03      0.1471795551E-02

    ------------------------------------------------
       NWT REQUIRED            5 OUTER ITERATIONS 
       AND A TOTAL OF          8 INNER ITERATIONS.
    ------------------------------------------------

 NO OUTPUT CONTROL FOR STRESS PERIOD   36   TIME STEP   12
 
 SOLVING FOR HEAD 
                                                   Max.-Head-Change                         Max.-Flux-Residual
  Residual-Control   Outer-Iter.   Inner-Iter.     Column Row Layer    Maximum-Head-Change  Column Row Layer    Maximum-Flux-Residual          L2-NORM 
          0                 1           2             4    7     1       0.2992432133E-01       4    7    1         0.1574309658E+01      0.3519876704E+01
          0                 2           2             4    7     1       0.4460190110E-02       4    7    1         0.2352530000E+00      0.4845243925E+00
          0                 3           2             4    7     1       0.6645870930E-03       4    7    1         0.3501051169E-01      0.6710197745E-01
          0                 4           1             4    7     1       0.9899821134E-04       4    7    1         0.5219051766E-02      0.9795400470E-02

    ------------------------------------------------
       NWT REQUIRED            4 OUTER ITERATIONS 
       AND A TOTAL OF          7 INNER ITERATIONS.
    ------------------------------------------------

 NO OUTPUT CONTROL FOR STRESS PERIOD   36   TIME STEP   13
 
 SOLVING FOR HEAD 
                                                   Max.-Head-Change                         Max.-Flux-Residual
  Residual-Control   Outer-Iter.   Inner-Iter.     Column Row Layer    Maximum-Head-Change  Column Row Layer    Maximum-Flux-Residual          L2-NORM 
          0                 1           2             4    7     1       0.2943462196E-01       4    7    1         0.1548375744E+01      0.3477463931E+01
          0                 2           2             4    7     1       0.4387664264E-02       4    7    1         0.2314203046E+00      0.4781430673E+00
          0                 3           2             4    7     1       0.6538449444E-03       4    7    1         0.3444215480E-01      0.6614110106E-01
          0                 4           1             4    7     1       0.9740702339E-04       4    7    1         0.5134910443E-02      0.9652157758E-02

    ------------------------------------------------
       NWT REQUIRED            4 OUTER ITERATIONS 
       AND A TOTAL OF          7 INNER ITERATIONS.
    ------------------------------------------------

 NO OUTPUT CONTROL FOR STRESS PERIOD   36   TIME STEP   14
 
 SOLVING FOR HEAD 
                                                   Max.-Head-Change                         Max.-Flux-Residual
  Residual-Control   Outer-Iter.   Inner-Iter.     Column Row Layer    Maximum-Head-Change  Column Row Layer    Maximum-Flux-Residual          L2-NORM 
          0                 1           2             4    7     1       0.2895656079E-01       4    7    1         0.1523061103E+01      0.3435947701E+01
          0                 2           2             4    7     1       0.4316852632E-02       4    7    1         0.2276784034E+00      0.4718788010E+00
          0                 3           2             4    7     1       0.6433554321E-03       4    7    1         0.3388720877E-01      0.6520052340E-01
          0                 4           1             4    7     1       0.9585308235E-04       4    7    1         0.5052743853E-02      0.9512027390E-02

    ------------------------------------------------
       NWT REQUIRED            4 OUTER ITERATIONS 
       AND A TOTAL OF          7 INNER ITERATIONS.
    ------------------------------------------------

 NO OUTPUT CONTROL FOR STRESS PERIOD   36   TIME STEP   15
 
 SOLVING FOR HEAD 
                                                   Max.-Head-Change                         Max.-Flux-Residual
  Residual-Control   Outer-Iter.   Inner-Iter.     Column Row Layer    Maximum-Head-Change  Column Row Layer    Maximum-Flux-Residual          L2-NORM 
          0                 1           2             4    7     1       0.2848990283E-01       4    7    1         0.1498353064E+01      0.3395318631E+01
          0                 2           2             4    7     1       0.4247719840E-02       4    7    1         0.2240254800E+00      0.4657884106E+00
          0                 3           2             4    7     1       0.6331131135E-03       4    7    1         0.3334539131E-01      0.6428147606E-01
          0                 4           1             4    7     1       0.9433555348E-04       4    7    1         0.4972508803E-02      0.9374921018E-02

    ------------------------------------------------
       NWT REQUIRED            4 OUTER ITERATIONS 
       AND A TOTAL OF          7 INNER ITERATIONS.
    ------------------------------------------------

 NO OUTPUT CONTROL FOR STRESS PERIOD   36   TIME STEP   16
 
 SOLVING FOR HEAD 
                                                   Max.-Head-Change                         Max.-Flux-Residual
  Residual-Control   Outer-Iter.   Inner-Iter.     Column Row Layer    Maximum-Head-Change  Column Row Layer    Maximum-Flux-Residual          L2-NORM 
          0                 1           2             4    7     1       0.2803442002E-01       4    7    1         0.1474239476E+01      0.3355598370E+01
          0                 2           2             4    7     1       0.4180233924E-02       4    7    1         0.2204597568E+00      0.4598136190E+00
          0                 3           2             4    7     1       0.6231136269E-03       4    7    1         0.3281646061E-01      0.6338218132E-01
          0                 4           1             4    7     1       0.9285384251E-04       4    7    1         0.4894172242E-02      0.9240829642E-02

    ------------------------------------------------
       NWT REQUIRED            4 OUTER ITERATIONS 
       AND A TOTAL OF          7 INNER ITERATIONS.
    ------------------------------------------------

 NO OUTPUT CONTROL FOR STRESS PERIOD   36   TIME STEP   17
 
 SOLVING FOR HEAD 
                                                   Max.-Head-Change                         Max.-Flux-Residual
  Residual-Control   Outer-Iter.   Inner-Iter.     Column Row Layer    Maximum-Head-Change  Column Row Layer    Maximum-Flux-Residual          L2-NORM 
          0                 1           2             4    7     1       0.2758948863E-01       4    7    1         0.1450686877E+01      0.3316689164E+01
          0                 2           2             4    7     1       0.4114303715E-02       4    7    1         0.2169763953E+00      0.4539632948E+00
          0                 3           2             4    7     1       0.6133435838E-03       4    7    1         0.3229970448E-01      0.6250195191E-01
          0                 4           1             4    7     1       0.9140598070E-04       4    7    1         0.4817629654E-02      0.9109588897E-02

    ------------------------------------------------
       NWT REQUIRED            4 OUTER ITERATIONS 
       AND A TOTAL OF          7 INNER ITERATIONS.
    ------------------------------------------------

 NO OUTPUT CONTROL FOR STRESS PERIOD   36   TIME STEP   18
 
 SOLVING FOR HEAD 
                                                   Max.-Head-Change                         Max.-Flux-Residual
  Residual-Control   Outer-Iter.   Inner-Iter.     Column Row Layer    Maximum-Head-Change  Column Row Layer    Maximum-Flux-Residual          L2-NORM 
          0                 1           2             4    7     1       0.2715504825E-01       4    7    1         0.1427692281E+01      0.3278582648E+01
          0                 2           2             4    7     1       0.4049919132E-02       4    7    1         0.2135749012E+00      0.4482358233E+00
          0                 3           2             4    7     1       0.6038013452E-03       4    7    1         0.3179504024E-01      0.6164057147E-01
          0                 4           1             4    7     1       0.8999170629E-04       4    7    1         0.4742867781E-02      0.8981145559E-02

    ------------------------------------------------
       NWT REQUIRED            4 OUTER ITERATIONS 
       AND A TOTAL OF          7 INNER ITERATIONS.
    ------------------------------------------------

 NO OUTPUT CONTROL FOR STRESS PERIOD   36   TIME STEP   19
 
 SOLVING FOR HEAD 
                                                   Max.-Head-Change                         Max.-Flux-Residual
  Residual-Control   Outer-Iter.   Inner-Iter.     Column Row Layer    Maximum-Head-Change  Column Row Layer    Maximum-Flux-Residual          L2-NORM 
          0                 1           2             4    7     1       0.2673076894E-01       4    7    1         0.1405237960E+01      0.3241254363E+01
          0                 2           2             4    7     1       0.3987032330E-02       4    7    1         0.2102527178E+00      0.4426280123E+00
          0                 3           2             4    7     1       0.5944799603E-03       4    7    1         0.3130209578E-01      0.6079753099E-01
          0                 4           1             4    7     1       0.8861000823E-04       4    7    1         0.4669832590E-02      0.8855444320E-02

    ------------------------------------------------
       NWT REQUIRED            4 OUTER ITERATIONS 
       AND A TOTAL OF          7 INNER ITERATIONS.
    ------------------------------------------------

 NO OUTPUT CONTROL FOR STRESS PERIOD   36   TIME STEP   20
 
 SOLVING FOR HEAD 
                                                   Max.-Head-Change                         Max.-Flux-Residual
  Residual-Control   Outer-Iter.   Inner-Iter.     Column Row Layer    Maximum-Head-Change  Column Row Layer    Maximum-Flux-Residual          L2-NORM 
          0                 1           2             4    7     1       0.2631619410E-01       4    7    1         0.1383299692E+01      0.3204676067E+01
          0                 2           2             4    7     1       0.3925576080E-02       4    7    1         0.2070062756E+00      0.4371353277E+00
          0                 3           2             4    7     1       0.5853695357E-03       4    7    1         0.3082034588E-01      0.5997214978E-01
          0                 4           1             4    7     1       0.8725943073E-04       4    7    1         0.4598446800E-02      0.8732376814E-02

    ------------------------------------------------
       NWT REQUIRED            4 OUTER ITERATIONS 
       AND A TOTAL OF          7 INNER ITERATIONS.
    ------------------------------------------------

 NO OUTPUT CONTROL FOR STRESS PERIOD   36   TIME STEP   21
 
 SOLVING FOR HEAD 
                                                   Max.-Head-Change                         Max.-Flux-Residual
  Residual-Control   Outer-Iter.   Inner-Iter.     Column Row Layer    Maximum-Head-Change  Column Row Layer    Maximum-Flux-Residual          L2-NORM 
          0                 1           2             4    7     1       0.2591129267E-01       4    7    1         0.1361875794E+01      0.3168835730E+01
          0                 2           2             4    7     1       0.3865545712E-02       4    7    1         0.2038353355E+00      0.4317559027E+00
          0                 3           2             4    7     1       0.5764693596E-03       4    7    1         0.3034975327E-01      0.5916419779E-01
          0                 4           1             4    7     1       0.8593986500E-04       4    7    1         0.4528704779E-02      0.8611912113E-02

    ------------------------------------------------
       NWT REQUIRED            4 OUTER ITERATIONS 
       AND A TOTAL OF          7 INNER ITERATIONS.
    ------------------------------------------------

 NO OUTPUT CONTROL FOR STRESS PERIOD   36   TIME STEP   22
 
 SOLVING FOR HEAD 
                                                   Max.-Head-Change                         Max.-Flux-Residual
  Residual-Control   Outer-Iter.   Inner-Iter.     Column Row Layer    Maximum-Head-Change  Column Row Layer    Maximum-Flux-Residual          L2-NORM 
          0                 1           2             4    7     1       0.2551562736E-01       4    7    1         0.1340942832E+01      0.3133708024E+01
          0                 2           2             4    7     1       0.3806877388E-02       4    7    1         0.2007365024E+00      0.4264864763E+00
          0                 3           2             4    7     1       0.5677701066E-03       4    7    1         0.2988982009E-01      0.5837303834E-01
          0                 4           1             4    7     1       0.8464994605E-04       4    7    1         0.4460533856E-02      0.8493951410E-02

    ------------------------------------------------
       NWT REQUIRED            4 OUTER ITERATIONS 
       AND A TOTAL OF          7 INNER ITERATIONS.
    ------------------------------------------------

 NO OUTPUT CONTROL FOR STRESS PERIOD   36   TIME STEP   23
 
 SOLVING FOR HEAD 
                                                   Max.-Head-Change                         Max.-Flux-Residual
  Residual-Control   Outer-Iter.   Inner-Iter.     Column Row Layer    Maximum-Head-Change  Column Row Layer    Maximum-Flux-Residual          L2-NORM 
          0                 1           2             4    7     1       0.2512891341E-01       4    7    1         0.1320485596E+01      0.3099277112E+01
          0                 2           2             4    7     1       0.3749529690E-02       4    7    1         0.1977075606E+00      0.4213240503E+00
          0                 3           2             4    7     1       0.5592657518E-03       4    7    1         0.2944022428E-01      0.5759835155E-01
          0                 4           1             4    7     1       0.8338879976E-04       4    7    1         0.4393887232E-02      0.8378446913E-02

    ------------------------------------------------
       NWT REQUIRED            4 OUTER ITERATIONS 
       AND A TOTAL OF          7 INNER ITERATIONS.
    ------------------------------------------------

 NO OUTPUT CONTROL FOR STRESS PERIOD   36   TIME STEP   24
 
 SOLVING FOR HEAD 
                                                   Max.-Head-Change                         Max.-Flux-Residual
  Residual-Control   Outer-Iter.   Inner-Iter.     Column Row Layer    Maximum-Head-Change  Column Row Layer    Maximum-Flux-Residual          L2-NORM 
          0                 1           2             4    7     1       0.2475087760E-01       4    7    1         0.1300489454E+01      0.3065516348E+01
          0                 2           2             4    7     1       0.3693462477E-02       4    7    1         0.1947463879E+00      0.4162646670E+00
          0                 3           2             4    7     1       0.5509503827E-03       4    7    1         0.2900065167E-01      0.5683946576E-01
          0                 4           1             4    7     1       0.8215555198E-04       4    7    1         0.4328718675E-02      0.8265304477E-02

    ------------------------------------------------
       NWT REQUIRED            4 OUTER ITERATIONS 
       AND A TOTAL OF          7 INNER ITERATIONS.
    ------------------------------------------------

 NO OUTPUT CONTROL FOR STRESS PERIOD   36   TIME STEP   25
 
 SOLVING FOR HEAD 
                                                   Max.-Head-Change                         Max.-Flux-Residual
  Residual-Control   Outer-Iter.   Inner-Iter.     Column Row Layer    Maximum-Head-Change  Column Row Layer    Maximum-Flux-Residual          L2-NORM 
          0                 1           2             4    7     1       0.2438152266E-01       4    7    1         0.1280954899E+01      0.3032421775E+01
          0                 2           2             4    7     1       0.3638674964E-02       4    7    1         0.1918529712E+00      0.4113078700E+00
          0                 3           2             4    7     1       0.5428237320E-03       4    7    1         0.2857109304E-01      0.5609632914E-01
          0                 4           1             4    7     1       0.8095014405E-04       4    7    1         0.4265025632E-02      0.8154510666E-02

    ------------------------------------------------
       NWT REQUIRED            4 OUTER ITERATIONS 
       AND A TOTAL OF          7 INNER ITERATIONS.
    ------------------------------------------------

 NO OUTPUT CONTROL FOR STRESS PERIOD   36   TIME STEP   26
 
 SOLVING FOR HEAD 
                                                   Max.-Head-Change                         Max.-Flux-Residual
  Residual-Control   Outer-Iter.   Inner-Iter.     Column Row Layer    Maximum-Head-Change  Column Row Layer    Maximum-Flux-Residual          L2-NORM 
          0                 1           2             4    7     1       0.2402030891E-01       4    7    1         0.1261852889E+01      0.2999962286E+01
          0                 2           2             4    7     1       0.3585088799E-02       4    7    1         0.1890231325E+00      0.4064334076E+00
          0                 3           2             4    7     1       0.5348744151E-03       4    7    1         0.2815093847E-01      0.5536776556E-01
          0                 4           1             4    7     1       0.7977092101E-04       4    7    1         0.4202719655E-02      0.8045964851E-02

    ------------------------------------------------
       NWT REQUIRED            4 OUTER ITERATIONS 
       AND A TOTAL OF          7 INNER ITERATIONS.
    ------------------------------------------------

 NO OUTPUT CONTROL FOR STRESS PERIOD   36   TIME STEP   27
 
 SOLVING FOR HEAD 
                                                   Max.-Head-Change                         Max.-Flux-Residual
  Residual-Control   Outer-Iter.   Inner-Iter.     Column Row Layer    Maximum-Head-Change  Column Row Layer    Maximum-Flux-Residual          L2-NORM 
          0                 1           2             4    7     1       0.2366712537E-01       4    7    1         0.1243177534E+01      0.2968139879E+01
          0                 2           2             4    7     1       0.3532687862E-02       4    7    1         0.1862560045E+00      0.4016869656E+00
          0                 3           2             4    7     1       0.5271000657E-03       4    7    1         0.2774006294E-01      0.5465481756E-01
          0                 4           1             4    7     1       0.7861753156E-04       4    7    1         0.4141782196E-02      0.7939605071E-02

    ------------------------------------------------
       NWT REQUIRED            4 OUTER ITERATIONS 
       AND A TOTAL OF          7 INNER ITERATIONS.
    ------------------------------------------------

 NO OUTPUT CONTROL FOR STRESS PERIOD   36   TIME STEP   28
 
 SOLVING FOR HEAD 
                                                   Max.-Head-Change                         Max.-Flux-Residual
  Residual-Control   Outer-Iter.   Inner-Iter.     Column Row Layer    Maximum-Head-Change  Column Row Layer    Maximum-Flux-Residual          L2-NORM 
          0                 1           2             4    7     1       0.2332186366E-01       4    7    1         0.1224923133E+01      0.2936940594E+01
          0                 2           2             4    7     1       0.3481455423E-02       4    7    1         0.1835507350E+00      0.3970203920E+00
          0                 3           2             4    7     1       0.5194981395E-03       4    7    1         0.2733833252E-01      0.5395601902E-01
          0                 4           1             4    7     1       0.7748959290E-04       4    7    1         0.4082193184E-02      0.7835424559E-02

    ------------------------------------------------
       NWT REQUIRED            4 OUTER ITERATIONS 
       AND A TOTAL OF          7 INNER ITERATIONS.
    ------------------------------------------------

 NO OUTPUT CONTROL FOR STRESS PERIOD   36   TIME STEP   29
 
 SOLVING FOR HEAD 
                                                   Max.-Head-Change                         Max.-Flux-Residual
  Residual-Control   Outer-Iter.   Inner-Iter.     Column Row Layer    Maximum-Head-Change  Column Row Layer    Maximum-Flux-Residual          L2-NORM 
          0                 1           2             4    7     1       0.2298414871E-01       4    7    1         0.1207069502E+01      0.2906326813E+01
          0                 2           2             4    7     1       0.3431337500E-02       4    7    1         0.1809044210E+00      0.3924443189E+00
          0                 3           2             4    7     1       0.5120608364E-03       4    7    1         0.2694532913E-01      0.5327115019E-01
          0                 4           1             4    7     1       0.7638597592E-04       4    7    1         0.4023892161E-02      0.7733327705E-02

    ------------------------------------------------
       NWT REQUIRED            4 OUTER ITERATIONS 
       AND A TOTAL OF          7 INNER ITERATIONS.
    ------------------------------------------------

 NO OUTPUT CONTROL FOR STRESS PERIOD   36   TIME STEP   30



 STREAM LISTING     PERIOD     36   STEP       30

 LAYER ROW COL. STREAM  RCH.  FLOW INTO     FLOW TO   FLOW OUT OF   OVRLND.     DIRECT     STREAM       STREAM     STREAM     STREAM   STREAMBED  STREAMBED
                SEG.NO.  NO.  STRM. RCH.    AQUIFER    STRM. RCH.    RUNOFF     PRECIP       ET          HEAD       DEPTH      WIDTH   CONDCTNC.   GRADIENT

   1    1    1     1     1    9.7497E+00  1.4616E-01   9.6035E+00  0.000E+00  0.000E+00  0.000E+00  1.09394E+03  8.903E-01  8.349E+00  3.757E-02  1.297E+00
   1    2    2     1     2    9.6035E+00  2.2466E-01   9.3789E+00  0.000E+00  0.000E+00  0.000E+00  1.08894E+03  8.846E-01  8.262E+00  5.783E-02  1.295E+00
   1    3    3     1     3    9.3789E+00  1.8995E-01   9.1889E+00  0.000E+00  0.000E+00  0.000E+00  1.08330E+03  8.782E-01  8.163E+00  4.898E-02  1.293E+00
   1    3    4     1     4    9.1889E+00  1.7356E-01   9.0154E+00  0.000E+00  0.000E+00  0.000E+00  1.07828E+03  8.725E-01  8.076E+00  4.482E-02  1.291E+00
   1    4    5     2     1    7.0154E+00  2.7742E-01   6.7380E+00  0.000E+00  0.000E+00  0.000E+00  1.07249E+03  5.566E-01  1.200E+01  7.800E-02  1.186E+00
   1    5    6     2     2    6.7380E+00  2.1268E-01   6.5253E+00  0.000E+00  0.000E+00  0.000E+00  1.06705E+03  5.446E-01  1.200E+01  6.000E-02  1.182E+00
   1    6    6     2     3    6.5253E+00  2.1205E-01   6.3132E+00  0.000E+00  0.000E+00  0.000E+00  1.06233E+03  5.341E-01  1.200E+01  6.000E-02  1.178E+00
   1    7    6     2     4    6.3132E+00  2.1141E-01   6.1018E+00  0.000E+00  0.000E+00  0.000E+00  1.05760E+03  5.235E-01  1.200E+01  6.000E-02  1.174E+00
   1    8    6     2     5    6.1018E+00  2.1076E-01   5.8911E+00  0.000E+00  0.000E+00  0.000E+00  1.05287E+03  5.127E-01  1.200E+01  6.000E-02  1.171E+00
   1    3    5     3     1    2.0000E+00  2.8252E-01   1.7175E+00  0.000E+00  0.000E+00  0.000E+00  1.07555E+03  1.909E+00  9.636E+00  7.227E-02  1.955E+00
   1    3    6     3     2    1.7175E+00  2.4905E-01   1.4684E+00  0.000E+00  0.000E+00  0.000E+00  1.07264E+03  1.727E+00  8.909E+00  6.682E-02  1.864E+00
   1    3    7     3     3    1.4684E+00  1.9718E-01   1.2712E+00  0.000E+00  0.000E+00  0.000E+00  1.06987E+03  1.555E+00  8.218E+00  5.547E-02  1.777E+00
   1    4    8     3     4    1.2712E+00  2.2567E-01   1.0456E+00  0.000E+00  0.000E+00  0.000E+00  1.06682E+03  1.364E+00  7.455E+00  6.709E-02  1.682E+00
   1    5    8     3     5    1.0456E+00  1.5790E-01   8.8768E-01  0.000E+00  0.000E+00  0.000E+00  1.06362E+03  1.164E+00  6.655E+00  4.991E-02  1.582E+00
   1    6    8     3     6    8.8768E-01  5.5980E-02   8.3170E-01  0.000E+00  0.000E+00  0.000E+00  1.06158E+03  1.036E+00  6.145E+00  1.844E-02  1.518E+00
   1    5   10     4     1    1.0000E+01  9.0919E-02   9.9091E+00  0.000E+00  0.000E+00  0.000E+00  1.07836E+03  6.368E-01  1.000E+01  2.500E-02  1.212E+00
   1    5    9     4     2    9.9091E+00  1.8158E-01   9.7275E+00  0.000E+00  0.000E+00  0.000E+00  1.07154E+03  6.315E-01  1.000E+01  5.000E-02  1.211E+00
   1    6    8     4     3    9.7275E+00  1.2689E-01   9.6006E+00  0.000E+00  0.000E+00  0.000E+00  1.06381E+03  6.256E-01  1.000E+01  3.500E-02  1.209E+00
   1    6    8     5     1    1.0432E+01  2.2686E-01   1.0205E+01  0.000E+00  0.000E+00  0.000E+00  1.05868E+03  6.790E-01  1.542E+01  6.166E-02  1.226E+00
   1    7    7     5     2    1.0205E+01  2.7894E-01   9.9265E+00  0.000E+00  0.000E+00  0.000E+00  1.05417E+03  6.732E-01  1.519E+01  7.594E-02  1.224E+00
   1    8    7     5     3    9.9265E+00  1.9221E-01   9.7343E+00  0.000E+00  0.000E+00  0.000E+00  1.04992E+03  6.676E-01  1.497E+01  5.241E-02  1.223E+00
   1    8    6     5     4    9.7343E+00  1.3577E-01   9.5985E+00  0.000E+00  0.000E+00  0.000E+00  1.04691E+03  6.637E-01  1.482E+01  3.706E-02  1.221E+00
   1    9    6     6     1    1.5490E+01  2.3472E-01   1.5255E+01  0.000E+00  0.000E+00  0.000E+00  1.04364E+03  9.120E-01  1.200E+01  6.000E-02  1.304E+00
   1   10    7     6     2    1.5255E+01  2.3422E-01   1.5021E+01  0.000E+00  0.000E+00  0.000E+00  1.03909E+03  9.037E-01  1.200E+01  6.000E-02  1.301E+00
   1   11    7     6     3    1.5021E+01  2.3372E-01   1.4787E+01  0.000E+00  0.000E+00  0.000E+00  1.03453E+03  8.953E-01  1.200E+01  6.000E-02  1.298E+00
   1   12    7     6     4    1.4787E+01  2.3321E-01   1.4554E+01  0.000E+00  0.000E+00  0.000E+00  1.02998E+03  8.868E-01  1.200E+01  6.000E-02  1.296E+00
   1   13    7     6     5    1.4554E+01  6.9782E-03   1.4547E+01  0.000E+00  0.000E+00  0.000E+00  1.02679E+03  8.825E-01  1.200E+01  2.400E-02  9.692E-02
   1   14    9     7     1    1.5000E+02  1.3966E+00   1.4860E+02  0.000E+00  0.000E+00  0.000E+00  1.03987E+03  2.288E+00  5.529E+01  5.593E-01  8.323E-01
   1   13    8     7     2    1.4860E+02  2.0222E+00   1.4658E+02  0.000E+00  0.000E+00  0.000E+00  1.03478E+03  2.278E+00  5.525E+01  6.147E-01  1.097E+00
   1   13    7     7     3    1.4658E+02  1.7794E+00   1.4480E+02  0.000E+00  0.000E+00  0.000E+00  1.02969E+03  2.268E+00  5.521E+01  5.583E-01  1.062E+00
   1   13    6     8     1    1.5935E+02  1.1621E+00   1.5819E+02  0.000E+00  0.000E+00  0.000E+00  1.02475E+03  2.877E+00  4.172E+01  4.252E-01  9.111E-01
   1   13    5     8     2    1.5819E+02  4.0692E-01   1.5778E+02  0.000E+00  0.000E+00  0.000E+00  1.01850E+03  2.872E+00  4.165E+01  4.244E-01  3.196E-01
   1   13    4     8     3    1.5778E+02 -1.6357E+00   1.5942E+02  0.000E+00  0.000E+00  0.000E+00  1.01225E+03  2.876E+00  4.171E+01  4.250E+00 -1.283E-01
   1   13    3     8     4    1.5942E+02 -3.2579E+00   1.6267E+02  0.000E+00  0.000E+00  0.000E+00  1.00602E+03  2.893E+00  4.195E+01  4.275E+00 -2.541E-01
   1   13    2     8     5    1.6267E+02 -2.4840E+00   1.6516E+02  0.000E+00  0.000E+00  0.000E+00  9.99787E+02  2.912E+00  4.223E+01  4.303E+00 -1.924E-01
   1   13    1     8     6    1.6516E+02 -1.9586E+00   1.6712E+02  0.000E+00  0.000E+00  0.000E+00  9.94802E+02  2.927E+00  4.244E+01  2.595E+00 -2.516E-01
   1    8    6     9     1    0.0000E+00  0.0000E+00   0.0000E+00  0.000E+00  0.000E+00  0.000E+00  1.07875E+03  0.000E+00  4.000E+00  0.000E+00  1.000E+00
   1    8    5     9     2    0.0000E+00  0.0000E+00   0.0000E+00  0.000E+00  0.000E+00  0.000E+00  1.07825E+03  0.000E+00  4.000E+00  0.000E+00  1.000E+00





UNSATURATED ZONE PACKAGE VOLUMETRIC BUDGET FOR  TIME STEP    30 STRESS PERIOD   36
  ------------------------------------------------------------------------------



     CUMULATIVE VOLUMES      L**3       RATES FOR THIS TIME STEP      L**3/T
     ------------------                 ------------------------

           IN:                                      IN:
           ---                                      ---
        INFILTRATION =  1750499813.7314          INFILTRATION =           0.8475

          OUT:                                     OUT:
          ----                                     ----
              UZF ET =  1282977820.3379                UZF ET =           0.7500
        UZF RECHARGE =    72475428.8625          UZF RECHARGE =           1.9166

            IN - OUT =   395046564.5309              IN - OUT =          -1.8191

          STORAGE:                                 STORAGE:
          --------                                 --------
      STORAGE CHANGE =   395051131.3789        STORAGE CHANGE =          -1.8191

 PERCENT DISCREPANCY IS DIFFERENCE BETWEEN IN-OUT MINUS CHANGE IN STORAGE
 DIVIDED BY THE AVERAGE OF IN AND OUT TIMES 100

 PERCENT DISCREPANCY =          -0.00     PERCENT DISCREPANCY =           0.00






1
  VOLUMETRIC BUDGET FOR AGRICULTURAL FIELDS AT  END OF TIME STEP   30, STRESS PERIOD  36
  ------------------------------------------------------------------------------

     CUMULATIVE VOLUMES      L**3       RATES FOR THIS TIME STEP      L**3/T
     ------------------                 ------------------------

           IN:                                      IN:
           ---                                      ---
               AG WELLS  =  1101049344.0000                 AG WELLS  =           0.0000
      DIVERSION SEGMENTS =   571557568.0000        DIVERSION SEGMENTS =           0.0000
       IRRIGATION PONDS  =           0.0000         IRRIGATION PONDS  =           0.0000
           GW IRRIGATION =           0.0000             GW IRRIGATION =           0.0000
           SW IRRIGATION =           0.0000             SW IRRIGATION =           0.0000
        SYSTEM LOSSES GW =           0.0000          SYSTEM LOSSES GW =           0.0000
        SYSTEM LOSSES SW =           0.0000          SYSTEM LOSSES SW =           0.0000

                TOTAL IN =  1672606976.0000                  TOTAL IN =           0.0000

          OUT:                                     OUT:
          ----                                     ----
               AG WELLS  =           0.0000                 AG WELLS  =           0.0000
      DIVERSION SEGMENTS =           0.0000        DIVERSION SEGMENTS =           0.0000
       IRRIGATION PONDS  =           0.0000         IRRIGATION PONDS  =           0.0000
           GW IRRIGATION =  1101049344.0000             GW IRRIGATION =           0.0000
           SW IRRIGATION =   571569024.0000             SW IRRIGATION =           0.0000
        SYSTEM LOSSES GW =           0.0000          SYSTEM LOSSES GW =           0.0000
        SYSTEM LOSSES SW =           0.0000          SYSTEM LOSSES SW =           0.0000

               TOTAL OUT =  1672618368.0000                 TOTAL OUT =           0.0000

                IN - OUT =      -11392.0000                  IN - OUT =           0.0000

     PERCENT DISCREPANCY =          -0.00         PERCENT DISCREPANCY =           0.00



1
  VOLUMETRIC BUDGET FOR ENTIRE MODEL AT END OF TIME STEP   30, STRESS PERIOD  36
  ------------------------------------------------------------------------------

     CUMULATIVE VOLUMES      L**3       RATES FOR THIS TIME STEP      L**3/T
     ------------------                 ------------------------

           IN:                                      IN:
           ---                                      ---
             STORAGE     =  1662578816.0000               STORAGE     =           7.1258
       CONSTANT HEAD     =           0.0000         CONSTANT HEAD     =           0.0000
     HEAD DEP BOUNDS     =    26585156.0000       HEAD DEP BOUNDS     =           0.2899
      STREAM LEAKAGE     =  1102433280.0000        STREAM LEAKAGE     =          11.9701
        UZF RECHARGE     =    72475432.0000          UZF RECHARGE     =           1.9166
               GW ET     =           0.0000                 GW ET     =           0.0000
     SURFACE LEAKAGE     =           0.0000       SURFACE LEAKAGE     =           0.0000
           AG WELLS      =           0.0000             AG WELLS      =           0.0000

                TOTAL IN =  2864072704.0000                  TOTAL IN =          21.3024

          OUT:                                     OUT:
          ----                                     ----
             STORAGE     =   826427904.0000               STORAGE     =          11.6763
       CONSTANT HEAD     =           0.0000         CONSTANT HEAD     =           0.0000
     HEAD DEP BOUNDS     =    26515324.0000       HEAD DEP BOUNDS     =           0.2872
      STREAM LEAKAGE     =   910067200.0000        STREAM LEAKAGE     =           9.3362
        UZF RECHARGE     =           0.0000          UZF RECHARGE     =           0.0000
               GW ET     =           0.0000                 GW ET     =           0.0000
     SURFACE LEAKAGE     =           0.0000       SURFACE LEAKAGE     =           0.0000
           AG WELLS      =  1101049344.0000             AG WELLS      =           0.0000

               TOTAL OUT =  2864059904.0000                 TOTAL OUT =          21.2997

                IN - OUT =       12800.0000                  IN - OUT =       2.7828E-03

     PERCENT DISCREPANCY =           0.00         PERCENT DISCREPANCY =           0.01






         TIME SUMMARY AT END OF TIME STEP   30 IN STRESS PERIOD   36
                    SECONDS     MINUTES      HOURS       DAYS        YEARS
                    -----------------------------------------------------------
   TIME STEP LENGTH  87667.      1461.1      24.352      1.0147     2.77799E-03
 STRESS PERIOD TIME 2.63000E+06  43833.      730.56      30.440     8.33397E-02
         TOTAL TIME 9.21360E+07 1.53560E+06  25593.      1066.4      2.9196    
1
1
                            STRESS PERIOD NO.   37, LENGTH =   2630000.    
                            -----------------------------------------------

                              NUMBER OF TIME STEPS =    30

                               MULTIPLIER FOR DELT =     1.000

                            INITIAL TIME STEP SIZE =   87666.66    

 REUSING NON-PARAMETER GHB CELLS FROM LAST STRESS PERIOD

      2 GHB CELLS

 REUSING STREAM SEGMENT DATA FROM LAST STRESS PERIOD



            AREAL INFILTRATION RATE
 READING ON UNIT   19 WITH FORMAT: (FREE)              

            1           2           3           4           5           6           7           8           9          10
 ........................................................................................................................
   1   1.0000E-10  2.0000E-10   0.000       0.000       0.000       0.000       0.000       0.000       0.000       0.000    
   2   2.0000E-10  1.0000E-10  2.0000E-10   0.000       0.000      8.0000E-10  8.0000E-10  5.0000E-10   0.000       0.000    
   3    0.000      5.0000E-10  1.0000E-10  1.0000E-10  8.0000E-10  8.0000E-10  5.0000E-10  5.0000E-10   0.000       0.000    
   4   8.0000E-10  5.0000E-10  1.0000E-10  1.0000E-10  1.0000E-10  1.0000E-10  1.0000E-10  1.0000E-10  2.0000E-10   0.000    
   5   8.0000E-10  5.0000E-10  1.0000E-10  1.0000E-10  1.0000E-10  1.0000E-10  1.0000E-10  1.0000E-10  1.0000E-10  1.0000E-10
   6   8.0000E-10  5.0000E-10  5.0000E-10  2.0000E-10  2.0000E-10  1.0000E-10  1.0000E-10  1.0000E-10  1.0000E-10  5.0000E-10
   7   8.0000E-10  5.0000E-10  5.0000E-10  2.0000E-10  2.0000E-10  1.0000E-10  1.0000E-10  2.0000E-10  2.0000E-10   0.000    
   8    0.000      5.0000E-10  5.0000E-10  2.0000E-10  2.0000E-10  1.0000E-10  1.0000E-10  2.0000E-10  5.0000E-10   0.000    
   9    0.000      5.0000E-10  5.0000E-10  2.0000E-10  2.0000E-10  1.0000E-10  1.0000E-10  2.0000E-10  5.0000E-10   0.000    
  10    0.000      5.0000E-10  5.0000E-10  2.0000E-10  2.0000E-10  1.0000E-10  1.0000E-10  2.0000E-10  5.0000E-10  8.0000E-10
  11    0.000      1.0000E-10  1.0000E-10  1.0000E-10  1.0000E-10  1.0000E-10  1.0000E-10  2.0000E-10  5.0000E-10   0.000    
  12   1.0000E-10  1.0000E-10  1.0000E-10  1.0000E-10  1.0000E-10  1.0000E-10  1.0000E-10  1.0000E-10  2.0000E-10   0.000    
  13   1.0000E-10  1.0000E-10  2.0000E-10  2.0000E-10  2.0000E-10  2.0000E-10  2.0000E-10  1.0000E-10  1.0000E-10   0.000    
  14    0.000      2.0000E-10  5.0000E-10  5.0000E-10  5.0000E-10  5.0000E-10  5.0000E-10  2.0000E-10  1.0000E-10   0.000    
  15    0.000       0.000      8.0000E-10  8.0000E-10  8.0000E-10  8.0000E-10   0.000       0.000       0.000       0.000    

                  ET RATE =  5.000000E-10

 USING ET EXTINCTION DEPTH FROM PREVIOUS STRESS PERIOD. CURRENT PERIOD IS:      37

 USING EXTINCTION WATER CONTENT FROM PREVIOUS STRESS PERIOD. CURRENT PERIOD IS:      37

 USING AIR ENTRY PRESSURE FROM PREVIOUS STRESS PERIOD. CURRENT PERIOD IS:      37

 USING ROOT PRESSURE HEAD FROM PREVIOUS STRESS PERIOD. CURRENT PERIOD IS:      37

 USING ROOT ACTIVITY FROM PREVIOUS STRESS PERIOD. CURRENT PERIOD IS:      37

 PROCESSING AG STRESS PERIOD DATA

 READING AG STRESS PERIOD DATA

 READING IRRIGATION SEGMENT

 READING IRRIGATION WELL

 READING SUPPLEMENTAL WELL

 NO IRRPOND OR REUSING IRRPOND DATA FROM LAST STRESS PERIOD

 END PROCESSING AG STRESS PERIOD DATA OPTIONS
 
 SOLVING FOR HEAD 
                                                   Max.-Head-Change                         Max.-Flux-Residual
  Residual-Control   Outer-Iter.   Inner-Iter.     Column Row Layer    Maximum-Head-Change  Column Row Layer    Maximum-Flux-Residual          L2-NORM 
          0                 1           2             4    7     1       0.2265374826E-01       4    7    1         0.1189604679E+01      0.2876974230E+01
          0                 2           2             4    7     1       0.3382301282E-02       4    7    1         0.1783152104E+00      0.3880886029E+00
          0                 3           2             4    7     1       0.5047847146E-03       4    7    1         0.2656080731E-01      0.5262253023E-01
          0                 4           1             4    7     1       0.7530662934E-04       4    7    1         0.3966858426E-02      0.7637415579E-02

    ------------------------------------------------
       NWT REQUIRED            4 OUTER ITERATIONS 
       AND A TOTAL OF          7 INNER ITERATIONS.
    ------------------------------------------------

 NO OUTPUT CONTROL FOR STRESS PERIOD   37   TIME STEP    1
 
 SOLVING FOR HEAD 
                                                   Max.-Head-Change                         Max.-Flux-Residual
  Residual-Control   Outer-Iter.   Inner-Iter.     Column Row Layer    Maximum-Head-Change  Column Row Layer    Maximum-Flux-Residual          L2-NORM 
          0                 1           2             4    7     1       0.2233058535E-01       4    7    1         0.1172524155E+01      0.2849722775E+01
          0                 2           2             4    7     1       0.3334330758E-02       4    7    1         0.1757825446E+00      0.3837879994E+00
          0                 3           2             4    7     1       0.4976641524E-03       4    7    1         0.2618461311E-01      0.5196499959E-01
          0                 4           1             4    7     1       0.7424969909E-04       4    7    1         0.3911033628E-02      0.7538683325E-02

    ------------------------------------------------
       NWT REQUIRED            4 OUTER ITERATIONS 
       AND A TOTAL OF          7 INNER ITERATIONS.
    ------------------------------------------------

 NO OUTPUT CONTROL FOR STRESS PERIOD   37   TIME STEP    2
 
 SOLVING FOR HEAD 
                                                   Max.-Head-Change                         Max.-Flux-Residual
  Residual-Control   Outer-Iter.   Inner-Iter.     Column Row Layer    Maximum-Head-Change  Column Row Layer    Maximum-Flux-Residual          L2-NORM 
          0                 1           2             4    7     1       0.2201443757E-01       4    7    1         0.1155816219E+01      0.2820765090E+01
          0                 2           2             4    7     1       0.3287396938E-02       4    7    1         0.1733046758E+00      0.3794775868E+00
          0                 3           2             4    7     1       0.4906972171E-03       4    7    1         0.2581654096E-01      0.5132192547E-01
          0                 4           1             4    7     1       0.7321560085E-04       4    7    1         0.3856412905E-02      0.7442855028E-02

    ------------------------------------------------
       NWT REQUIRED            4 OUTER ITERATIONS 
       AND A TOTAL OF          7 INNER ITERATIONS.
    ------------------------------------------------

 NO OUTPUT CONTROL FOR STRESS PERIOD   37   TIME STEP    3
 
 SOLVING FOR HEAD 
                                                   Max.-Head-Change                         Max.-Flux-Residual
  Residual-Control   Outer-Iter.   Inner-Iter.     Column Row Layer    Maximum-Head-Change  Column Row Layer    Maximum-Flux-Residual          L2-NORM 
          0                 1           2             4    7     1       0.2170510073E-01       4    7    1         0.1139469771E+01      0.2792342024E+01
          0                 2           2             4    7     1       0.3241469873E-02       4    7    1         0.1708800346E+00      0.3752490184E+00
          0                 3           2             4    7     1       0.4838790955E-03       4    7    1         0.2545635473E-01      0.5069137000E-01
          0                 4           1             4    7     1       0.7220350013E-04       4    7    1         0.3802956748E-02      0.7348899180E-02

    ------------------------------------------------
       NWT REQUIRED            4 OUTER ITERATIONS 
       AND A TOTAL OF          7 INNER ITERATIONS.
    ------------------------------------------------

 NO OUTPUT CONTROL FOR STRESS PERIOD   37   TIME STEP    4
 
 SOLVING FOR HEAD 
                                                   Max.-Head-Change                         Max.-Flux-Residual
  Residual-Control   Outer-Iter.   Inner-Iter.     Column Row Layer    Maximum-Head-Change  Column Row Layer    Maximum-Flux-Residual          L2-NORM 
          0                 1           2             4    7     1       0.2140237763E-01       4    7    1         0.1123474276E+01      0.2764444212E+01
          0                 2           2             4    7     1       0.3196519977E-02       4    7    1         0.1685070871E+00      0.3711253173E+00
          0                 3           2             4    7     1       0.4772053046E-03       4    7    1         0.2510381984E-01      0.5007373497E-01
          0                 4           1             4    7     1       0.7121271887E-04       4    7    1         0.3750629748E-02      0.7257075243E-02

    ------------------------------------------------
       NWT REQUIRED            4 OUTER ITERATIONS 
       AND A TOTAL OF          7 INNER ITERATIONS.
    ------------------------------------------------

 NO OUTPUT CONTROL FOR STRESS PERIOD   37   TIME STEP    5
 
 SOLVING FOR HEAD 
                                                   Max.-Head-Change                         Max.-Flux-Residual
  Residual-Control   Outer-Iter.   Inner-Iter.     Column Row Layer    Maximum-Head-Change  Column Row Layer    Maximum-Flux-Residual          L2-NORM 
          0                 1           2             4    7     1       0.2110607411E-01       4    7    1         0.1107819543E+01      0.2737026028E+01
          0                 2           2             4    7     1       0.3152443297E-02       4    7    1         0.1661843041E+00      0.3669430452E+00
          0                 3           2             4    7     1       0.4706380694E-03       4    7    1         0.2475772475E-01      0.4944500178E-01
          0                 4           1             4    7     1       0.7023347086E-04       4    7    1         0.3699057334E-02      0.7162118399E-02

    ------------------------------------------------
       NWT REQUIRED            4 OUTER ITERATIONS 
       AND A TOTAL OF          7 INNER ITERATIONS.
    ------------------------------------------------

 NO OUTPUT CONTROL FOR STRESS PERIOD   37   TIME STEP    6
 
 SOLVING FOR HEAD 
                                                   Max.-Head-Change                         Max.-Flux-Residual
  Residual-Control   Outer-Iter.   Inner-Iter.     Column Row Layer    Maximum-Head-Change  Column Row Layer    Maximum-Flux-Residual          L2-NORM 
          0                 1           2             4    7     1       0.2081575583E-01       4    7    1         0.1092490301E+01      0.2710006035E+01
          0                 2           2             4    7     1       0.3109336666E-02       4    7    1         0.1639075129E+00      0.3629865849E+00
          0                 3           2             4    7     1       0.4642426249E-03       4    7    1         0.2441975850E-01      0.4885526799E-01
          0                 4           1             4    7     1       0.6928464047E-04       4    7    1         0.3648926616E-02      0.7074251398E-02

    ------------------------------------------------
       NWT REQUIRED            4 OUTER ITERATIONS 
       AND A TOTAL OF          7 INNER ITERATIONS.
    ------------------------------------------------

 NO OUTPUT CONTROL FOR STRESS PERIOD   37   TIME STEP    7
 
 SOLVING FOR HEAD 
                                                   Max.-Head-Change                         Max.-Flux-Residual
  Residual-Control   Outer-Iter.   Inner-Iter.     Column Row Layer    Maximum-Head-Change  Column Row Layer    Maximum-Flux-Residual          L2-NORM 
          0                 1           2             4    7     1       0.2053155458E-01       4    7    1         0.1077482889E+01      0.2683441468E+01
          0                 2           2             4    7     1       0.3067102359E-02       4    7    1         0.1616788095E+00      0.3590426225E+00
          0                 3           2             4    7     1       0.4579674163E-03       4    7    1         0.2408842838E-01      0.4826815568E-01
          0                 4           1             4    7     1       0.6835241409E-04       4    7    1         0.3599710375E-02      0.6986784275E-02

    ------------------------------------------------
       NWT REQUIRED            4 OUTER ITERATIONS 
       AND A TOTAL OF          7 INNER ITERATIONS.
    ------------------------------------------------

 NO OUTPUT CONTROL FOR STRESS PERIOD   37   TIME STEP    8
 
 SOLVING FOR HEAD 
                                                   Max.-Head-Change                         Max.-Flux-Residual
  Residual-Control   Outer-Iter.   Inner-Iter.     Column Row Layer    Maximum-Head-Change  Column Row Layer    Maximum-Flux-Residual          L2-NORM 
          0                 1           2             4    7     1       0.2025312871E-01       4    7    1         0.1062781235E+01      0.2657355185E+01
          0                 2           2             4    7     1       0.3019496159E-02       4    7    1         0.1592798576E+00      0.3550556496E+00
          0                 3           2             4    7     1       0.4505310010E-03       4    7    1         0.2370459543E-01      0.4766067356E-01
          0                 4           1             4    7     1       0.6719607170E-04       4    7    1         0.3540347554E-02      0.6894712697E-02

    ------------------------------------------------
       NWT REQUIRED            4 OUTER ITERATIONS 
       AND A TOTAL OF          7 INNER ITERATIONS.
    ------------------------------------------------

 NO OUTPUT CONTROL FOR STRESS PERIOD   37   TIME STEP    9
 
 SOLVING FOR HEAD 
                                                   Max.-Head-Change                         Max.-Flux-Residual
  Residual-Control   Outer-Iter.   Inner-Iter.     Column Row Layer    Maximum-Head-Change  Column Row Layer    Maximum-Flux-Residual          L2-NORM 
          0                 1           2             4    7     1       0.1997000036E-01       4    7    1         0.1048041823E+01      0.2631643477E+01
          0                 2           2             4    7     1       0.2981006040E-02       4    7    1         0.1572538549E+00      0.3513267041E+00
          0                 3           2             4    7     1       0.4448001673E-03       4    7    1         0.2340220015E-01      0.4710419537E-01
          0                 4           1             4    7     1       0.6634311638E-04       4    7    1         0.3495371823E-02      0.6811778088E-02

    ------------------------------------------------
       NWT REQUIRED            4 OUTER ITERATIONS 
       AND A TOTAL OF          7 INNER ITERATIONS.
    ------------------------------------------------

 NO OUTPUT CONTROL FOR STRESS PERIOD   37   TIME STEP   10
 
 SOLVING FOR HEAD 
                                                   Max.-Head-Change                         Max.-Flux-Residual
  Residual-Control   Outer-Iter.   Inner-Iter.     Column Row Layer    Maximum-Head-Change  Column Row Layer    Maximum-Flux-Residual          L2-NORM 
          0                 1           2             4    7     1       0.1969650445E-01       4    7    1         0.1033579682E+01      0.2606374897E+01
          0                 2           2             4    7     1       0.2940439496E-02       4    7    1         0.1551111084E+00      0.3475763249E+00
          0                 3           2             4    7     1       0.4387832729E-03       4    7    1         0.2308416835E-01      0.4654601939E-01
          0                 4           1             4    7     1       0.6545070592E-04       4    7    1         0.3448214624E-02      0.6728618627E-02

    ------------------------------------------------
       NWT REQUIRED            4 OUTER ITERATIONS 
       AND A TOTAL OF          7 INNER ITERATIONS.
    ------------------------------------------------

 NO OUTPUT CONTROL FOR STRESS PERIOD   37   TIME STEP   11
 
 SOLVING FOR HEAD 
                                                   Max.-Head-Change                         Max.-Flux-Residual
  Residual-Control   Outer-Iter.   Inner-Iter.     Column Row Layer    Maximum-Head-Change  Column Row Layer    Maximum-Flux-Residual          L2-NORM 
          0                 1           2             4    7     1       0.1942923625E-01       4    7    1         0.1019449310E+01      0.2581572025E+01
          0                 2           2             4    7     1       0.2900788448E-02       4    7    1         0.1530169082E+00      0.3438971779E+00
          0                 3           2             4    7     1       0.4329010307E-03       4    7    1         0.2277329300E-01      0.4599871719E-01
          0                 4           1             4    7     1       0.6457811001E-04       4    7    1         0.3402109074E-02      0.6647085410E-02

    ------------------------------------------------
       NWT REQUIRED            4 OUTER ITERATIONS 
       AND A TOTAL OF          7 INNER ITERATIONS.
    ------------------------------------------------

 NO OUTPUT CONTROL FOR STRESS PERIOD   37   TIME STEP   12
 
 SOLVING FOR HEAD 
                                                   Max.-Head-Change                         Max.-Flux-Residual
  Residual-Control   Outer-Iter.   Inner-Iter.     Column Row Layer    Maximum-Head-Change  Column Row Layer    Maximum-Flux-Residual          L2-NORM 
          0                 1           2             4    7     1       0.1916771727E-01       4    7    1         0.1005624967E+01      0.2557203365E+01
          0                 2           2             4    7     1       0.2861984022E-02       4    7    1         0.1509675489E+00      0.3402845731E+00
          0                 3           2             4    7     1       0.4271435011E-03       4    7    1         0.2246904075E-01      0.4546158490E-01
          0                 4           1             4    7     1       0.6372389126E-04       4    7    1         0.3356978148E-02      0.6567068059E-02

    ------------------------------------------------
       NWT REQUIRED            4 OUTER ITERATIONS 
       AND A TOTAL OF          7 INNER ITERATIONS.
    ------------------------------------------------

 NO OUTPUT CONTROL FOR STRESS PERIOD   37   TIME STEP   13
 
 SOLVING FOR HEAD 
                                                   Max.-Head-Change                         Max.-Flux-Residual
  Residual-Control   Outer-Iter.   Inner-Iter.     Column Row Layer    Maximum-Head-Change  Column Row Layer    Maximum-Flux-Residual          L2-NORM 
          0                 1           2             4    7     1       0.1891190037E-01       4    7    1         0.9921039651E+00      0.2533265747E+01
          0                 2           2             4    7     1       0.2824019712E-02       4    7    1         0.1489626809E+00      0.3367385242E+00
          0                 3           2             4    7     1       0.4215097899E-03       4    7    1         0.2217136144E-01      0.4493468328E-01
          0                 4           1             4    7     1       0.6288792661E-04       4    7    1         0.3312815032E-02      0.6488581975E-02

    ------------------------------------------------
       NWT REQUIRED            4 OUTER ITERATIONS 
       AND A TOTAL OF          7 INNER ITERATIONS.
    ------------------------------------------------

 NO OUTPUT CONTROL FOR STRESS PERIOD   37   TIME STEP   14
 
 SOLVING FOR HEAD 
                                                   Max.-Head-Change                         Max.-Flux-Residual
  Residual-Control   Outer-Iter.   Inner-Iter.     Column Row Layer    Maximum-Head-Change  Column Row Layer    Maximum-Flux-Residual          L2-NORM 
          0                 1           2             4    7     1       0.1866159735E-01       4    7    1         0.9788766170E+00      0.2509744224E+01
          0                 2           2             4    7     1       0.2786866624E-02       4    7    1         0.1470008032E+00      0.3332564248E+00
          0                 3           2             4    7     1       0.4159954891E-03       4    7    1         0.2188002597E-01      0.4441757511E-01
          0                 4           1             4    7     1       0.6206954690E-04       4    7    1         0.3269584825E-02      0.6411560524E-02

    ------------------------------------------------
       NWT REQUIRED            4 OUTER ITERATIONS 
       AND A TOTAL OF          7 INNER ITERATIONS.
    ------------------------------------------------

 NO OUTPUT CONTROL FOR STRESS PERIOD   37   TIME STEP   15
 
 SOLVING FOR HEAD 
                                                   Max.-Head-Change                         Max.-Flux-Residual
  Residual-Control   Outer-Iter.   Inner-Iter.     Column Row Layer    Maximum-Head-Change  Column Row Layer    Maximum-Flux-Residual          L2-NORM 
          0                 1           2             4    7     1       0.1841663176E-01       4    7    1         0.9659331619E+00      0.2486635040E+01
          0                 2           2             4    7     1       0.2750500373E-02       4    7    1         0.1450805767E+00      0.3298376275E+00
          0                 3           2             4    7     1       0.4105972179E-03       4    7    1         0.2159484832E-01      0.4391015024E-01
          0                 4           1             4    7     1       0.6126828253E-04       4    7    1         0.3227261755E-02      0.6335984640E-02

    ------------------------------------------------
       NWT REQUIRED            4 OUTER ITERATIONS 
       AND A TOTAL OF          7 INNER ITERATIONS.
    ------------------------------------------------

 NO OUTPUT CONTROL FOR STRESS PERIOD   37   TIME STEP   16
 
 SOLVING FOR HEAD 
                                                   Max.-Head-Change                         Max.-Flux-Residual
  Residual-Control   Outer-Iter.   Inner-Iter.     Column Row Layer    Maximum-Head-Change  Column Row Layer    Maximum-Flux-Residual          L2-NORM 
          0                 1           2             4    7     1       0.1817683898E-01       4    7    1         0.9532646083E+00      0.2463927257E+01
          0                 2           2             4    7     1       0.2714897408E-02       4    7    1         0.1432007401E+00      0.3264804933E+00
          0                 3           2             4    7     1       0.4053115958E-03       4    7    1         0.2131564589E-01      0.4341228303E-01
          0                 4           1             4    7     1       0.6048364567E-04       4    7    1         0.3185819659E-02      0.6261886732E-02

    ------------------------------------------------
       NWT REQUIRED            4 OUTER ITERATIONS 
       AND A TOTAL OF          7 INNER ITERATIONS.
    ------------------------------------------------

 NO OUTPUT CONTROL FOR STRESS PERIOD   37   TIME STEP   17
 
 SOLVING FOR HEAD 
                                                   Max.-Head-Change                         Max.-Flux-Residual
  Residual-Control   Outer-Iter.   Inner-Iter.     Column Row Layer    Maximum-Head-Change  Column Row Layer    Maximum-Flux-Residual          L2-NORM 
          0                 1           2             4    7     1       0.1794218972E-01       4    7    1         0.9408698081E+00      0.2441612841E+01
          0                 2           2             4    7     1       0.2680051781E-02       4    7    1         0.1413610237E+00      0.3231834789E+00
          0                 3           2             4    7     1       0.4001375299E-03       4    7    1         0.2104236744E-01      0.4292338698E-01
          0                 4           1             4    7     1       0.5971544836E-04       4    7    1         0.3145249388E-02      0.6189034121E-02

    ------------------------------------------------
       NWT REQUIRED            4 OUTER ITERATIONS 
       AND A TOTAL OF          7 INNER ITERATIONS.
    ------------------------------------------------

 NO OUTPUT CONTROL FOR STRESS PERIOD   37   TIME STEP   18
 
 SOLVING FOR HEAD 
                                                   Max.-Head-Change                         Max.-Flux-Residual
  Residual-Control   Outer-Iter.   Inner-Iter.     Column Row Layer    Maximum-Head-Change  Column Row Layer    Maximum-Flux-Residual          L2-NORM 
          0                 1           2             4    7     1       0.1771251788E-01       4    7    1         0.9287398680E+00      0.2419676867E+01
          0                 2           2             4    7     1       0.2645939276E-02       4    7    1         0.1395601375E+00      0.3199451769E+00
          0                 3           2             4    7     1       0.3950714919E-03       4    7    1         0.2077482431E-01      0.4244359902E-01
          0                 4           1             4    7     1       0.5896317449E-04       4    7    1         0.3105523422E-02      0.6117585829E-02

    ------------------------------------------------
       NWT REQUIRED            4 OUTER ITERATIONS 
       AND A TOTAL OF          7 INNER ITERATIONS.
    ------------------------------------------------

 NO OUTPUT CONTROL FOR STRESS PERIOD   37   TIME STEP   19
 
 SOLVING FOR HEAD 
                                                   Max.-Head-Change                         Max.-Flux-Residual
  Residual-Control   Outer-Iter.   Inner-Iter.     Column Row Layer    Maximum-Head-Change  Column Row Layer    Maximum-Flux-Residual          L2-NORM 
          0                 1           2             4    7     1       0.1748753687E-01       4    7    1         0.9168589609E+00      0.2398118510E+01
          0                 2           2             4    7     1       0.2612520266E-02       4    7    1         0.1377959034E+00      0.3167646295E+00
          0                 3           2             4    7     1       0.3901079854E-03       4    7    1         0.2051271438E-01      0.4197264598E-01
          0                 4           1             4    7     1       0.5822606123E-04       4    7    1         0.3066599894E-02      0.6047462631E-02

    ------------------------------------------------
       NWT REQUIRED            4 OUTER ITERATIONS 
       AND A TOTAL OF          7 INNER ITERATIONS.
    ------------------------------------------------

 NO OUTPUT CONTROL FOR STRESS PERIOD   37   TIME STEP   20
 
 SOLVING FOR HEAD 
                                                   Max.-Head-Change                         Max.-Flux-Residual
  Residual-Control   Outer-Iter.   Inner-Iter.     Column Row Layer    Maximum-Head-Change  Column Row Layer    Maximum-Flux-Residual          L2-NORM 
          0                 1           2             4    7     1       0.1726710048E-01       4    7    1         0.9052197697E+00      0.2376912051E+01
          0                 2           2             4    7     1       0.2579771169E-02       4    7    1         0.1360671345E+00      0.3136382979E+00
          0                 3           2             4    7     1       0.3852432669E-03       4    7    1         0.2025584697E-01      0.4151000815E-01
          0                 4           1             4    7     1       0.5750352019E-04       4    7    1         0.3028448706E-02      0.5978581915E-02

    ------------------------------------------------
       NWT REQUIRED            4 OUTER ITERATIONS 
       AND A TOTAL OF          7 INNER ITERATIONS.
    ------------------------------------------------

 NO OUTPUT CONTROL FOR STRESS PERIOD   37   TIME STEP   21
 
 SOLVING FOR HEAD 
                                                   Max.-Head-Change                         Max.-Flux-Residual
  Residual-Control   Outer-Iter.   Inner-Iter.     Column Row Layer    Maximum-Head-Change  Column Row Layer    Maximum-Flux-Residual          L2-NORM 
          0                 1           2             4    7     1       0.1705134126E-01       4    7    1         0.8938292237E+00      0.2356067617E+01
          0                 2           2             4    7     1       0.2547711560E-02       4    7    1         0.1343748772E+00      0.3105674665E+00
          0                 3           2             4    7     1       0.3804802190E-03       4    7    1         0.2000437456E-01      0.4105585623E-01
          0                 4           1             4    7     1       0.5679597618E-04       4    7    1         0.2991092430E-02      0.5910969804E-02

    ------------------------------------------------
       NWT REQUIRED            4 OUTER ITERATIONS 
       AND A TOTAL OF          7 INNER ITERATIONS.
    ------------------------------------------------

 NO OUTPUT CONTROL FOR STRESS PERIOD   37   TIME STEP   22
 
 SOLVING FOR HEAD 
                                                   Max.-Head-Change                         Max.-Flux-Residual
  Residual-Control   Outer-Iter.   Inner-Iter.     Column Row Layer    Maximum-Head-Change  Column Row Layer    Maximum-Flux-Residual          L2-NORM 
          0                 1           2             4    7     1       0.1683984635E-01       4    7    1         0.8826649928E+00      0.2335571320E+01
          0                 2           2             4    7     1       0.2516282973E-02       4    7    1         0.1327159467E+00      0.3075504326E+00
          0                 3           2             4    7     1       0.3758105569E-03       4    7    1         0.1975784814E-01      0.4060995575E-01
          0                 4           1             4    7     1       0.5610225331E-04       4    7    1         0.2954467276E-02      0.5844592628E-02

    ------------------------------------------------
       NWT REQUIRED            4 OUTER ITERATIONS 
       AND A TOTAL OF          7 INNER ITERATIONS.
    ------------------------------------------------

 NO OUTPUT CONTROL FOR STRESS PERIOD   37   TIME STEP   23
 
 SOLVING FOR HEAD 
                                                   Max.-Head-Change                         Max.-Flux-Residual
  Residual-Control   Outer-Iter.   Inner-Iter.     Column Row Layer    Maximum-Head-Change  Column Row Layer    Maximum-Flux-Residual          L2-NORM 
          0                 1           2             4    7     1       0.1663262262E-01       4    7    1         0.8717278252E+00      0.2315409869E+01
          0                 2           2             4    7     1       0.2485484014E-02       4    7    1         0.1310903585E+00      0.3045842646E+00
          0                 3           2             4    7     1       0.3712337357E-03       4    7    1         0.1951624826E-01      0.4017178486E-01
          0                 4           1             4    7     1       0.5542222352E-04       4    7    1         0.2918567957E-02      0.5779367120E-02

    ------------------------------------------------
       NWT REQUIRED            4 OUTER ITERATIONS 
       AND A TOTAL OF          7 INNER ITERATIONS.
    ------------------------------------------------

 NO OUTPUT CONTROL FOR STRESS PERIOD   37   TIME STEP   24
 
 SOLVING FOR HEAD 
                                                   Max.-Head-Change                         Max.-Flux-Residual
  Residual-Control   Outer-Iter.   Inner-Iter.     Column Row Layer    Maximum-Head-Change  Column Row Layer    Maximum-Flux-Residual          L2-NORM 
          0                 1           2             4    7     1       0.1642967593E-01       4    7    1         0.8610179322E+00      0.2295583923E+01
          0                 2           2             4    7     1       0.2455316488E-02       4    7    1         0.1294981682E+00      0.3016703032E+00
          0                 3           2             4    7     1       0.3667501642E-03       4    7    1         0.1927959281E-01      0.3974167122E-01
          0                 4           1             4    7     1       0.5475596847E-04       4    7    1         0.2883398109E-02      0.5715352969E-02

    ------------------------------------------------
       NWT REQUIRED            4 OUTER ITERATIONS 
       AND A TOTAL OF          7 INNER ITERATIONS.
    ------------------------------------------------

 NO OUTPUT CONTROL FOR STRESS PERIOD   37   TIME STEP   25
 
 SOLVING FOR HEAD 
                                                   Max.-Head-Change                         Max.-Flux-Residual
  Residual-Control   Outer-Iter.   Inner-Iter.     Column Row Layer    Maximum-Head-Change  Column Row Layer    Maximum-Flux-Residual          L2-NORM 
          0                 1           2             4    7     1       0.1623060919E-01       4    7    1         0.8505137992E+00      0.2276078481E+01
          0                 2           2             4    7     1       0.2425723185E-02       4    7    1         0.1279363166E+00      0.2988053452E+00
          0                 3           2             4    7     1       0.3623515768E-03       4    7    1         0.1904743736E-01      0.3931902163E-01
          0                 4           1             4    7     1       0.5410229162E-04       4    7    1         0.2848893659E-02      0.5652450003E-02

    ------------------------------------------------
       NWT REQUIRED            4 OUTER ITERATIONS 
       AND A TOTAL OF          7 INNER ITERATIONS.
    ------------------------------------------------

 NO OUTPUT CONTROL FOR STRESS PERIOD   37   TIME STEP   26
 
 SOLVING FOR HEAD 
                                                   Max.-Head-Change                         Max.-Flux-Residual
  Residual-Control   Outer-Iter.   Inner-Iter.     Column Row Layer    Maximum-Head-Change  Column Row Layer    Maximum-Flux-Residual          L2-NORM 
          0                 1           2             4    7     1       0.1603544255E-01       4    7    1         0.8402169259E+00      0.2256882946E+01
          0                 2           2             4    7     1       0.2396705619E-02       4    7    1         0.1264049182E+00      0.2959877911E+00
          0                 3           2             4    7     1       0.3580379982E-03       4    7    1         0.1881979002E-01      0.3890360892E-01
          0                 4           1             4    7     1       0.5346116923E-04       4    7    1         0.2815054159E-02      0.5590629926E-02

    ------------------------------------------------
       NWT REQUIRED            4 OUTER ITERATIONS 
       AND A TOTAL OF          7 INNER ITERATIONS.
    ------------------------------------------------

 NO OUTPUT CONTROL FOR STRESS PERIOD   37   TIME STEP   27
 
 SOLVING FOR HEAD 
                                                   Max.-Head-Change                         Max.-Flux-Residual
  Residual-Control   Outer-Iter.   Inner-Iter.     Column Row Layer    Maximum-Head-Change  Column Row Layer    Maximum-Flux-Residual          L2-NORM 
          0                 1           2             4    7     1       0.1584419877E-01       4    7    1         0.8301282646E+00      0.2238006276E+01
          0                 2           2             4    7     1       0.2368267942E-02       4    7    1         0.1249041762E+00      0.2932194898E+00
          0                 3           2             4    7     1       0.3538101594E-03       4    7    1         0.1859668522E-01      0.3849574797E-01
          0                 4           1             4    7     1       0.5283272584E-04       4    7    1         0.2781885701E-02      0.5529938943E-02

    ------------------------------------------------
       NWT REQUIRED            4 OUTER ITERATIONS 
       AND A TOTAL OF          7 INNER ITERATIONS.
    ------------------------------------------------

 NO OUTPUT CONTROL FOR STRESS PERIOD   37   TIME STEP   28
 
 SOLVING FOR HEAD 
                                                   Max.-Head-Change                         Max.-Flux-Residual
  Residual-Control   Outer-Iter.   Inner-Iter.     Column Row Layer    Maximum-Head-Change  Column Row Layer    Maximum-Flux-Residual          L2-NORM 
          0                 1           2             4    7     1       0.1565662449E-01       4    7    1         0.8202344515E+00      0.2219427637E+01
          0                 2           2             4    7     1       0.2340372351E-02       4    7    1         0.1234321024E+00      0.2904966412E+00
          0                 3           2             4    7     1       0.3496624159E-03       4    7    1         0.1837782576E-01      0.3809492522E-01
          0                 4           1             4    7     1       0.5221612008E-04       4    7    1         0.2749343982E-02      0.5470283641E-02

    ------------------------------------------------
       NWT REQUIRED            4 OUTER ITERATIONS 
       AND A TOTAL OF          7 INNER ITERATIONS.
    ------------------------------------------------

 NO OUTPUT CONTROL FOR STRESS PERIOD   37   TIME STEP   29
 
 SOLVING FOR HEAD 
                                                   Max.-Head-Change                         Max.-Flux-Residual
  Residual-Control   Outer-Iter.   Inner-Iter.     Column Row Layer    Maximum-Head-Change  Column Row Layer    Maximum-Flux-Residual          L2-NORM 
          0                 1           2             4    7     1       0.1547275117E-01       4    7    1         0.8105369943E+00      0.2201147500E+01
          0                 2           2             4    7     1       0.2313024122E-02       4    7    1         0.1219889591E+00      0.2878200715E+00
          0                 3           2             4    7     1       0.3455956331E-03       4    7    1         0.1816325472E-01      0.3770093587E-01
          0                 4           1             4    7     1       0.5161148852E-04       4    7    1         0.2717435948E-02      0.5411682974E-02

    ------------------------------------------------
       NWT REQUIRED            4 OUTER ITERATIONS 
       AND A TOTAL OF          7 INNER ITERATIONS.
    ------------------------------------------------

 NO OUTPUT CONTROL FOR STRESS PERIOD   37   TIME STEP   30



 STREAM LISTING     PERIOD     37   STEP       30

 LAYER ROW COL. STREAM  RCH.  FLOW INTO     FLOW TO   FLOW OUT OF   OVRLND.     DIRECT     STREAM       STREAM     STREAM     STREAM   STREAMBED  STREAMBED
                SEG.NO.  NO.  STRM. RCH.    AQUIFER    STRM. RCH.    RUNOFF     PRECIP       ET          HEAD       DEPTH      WIDTH   CONDCTNC.   GRADIENT

   1    1    1     1     1    8.6247E+00  1.3546E-01   8.4893E+00  0.000E+00  0.000E+00  0.000E+00  1.09390E+03  8.549E-01  7.809E+00  3.514E-02  1.285E+00
   1    2    2     1     2    8.4893E+00  2.0809E-01   8.2812E+00  0.000E+00  0.000E+00  0.000E+00  1.08891E+03  8.492E-01  7.723E+00  5.406E-02  1.283E+00
   1    3    3     1     3    8.2812E+00  1.7583E-01   8.1054E+00  0.000E+00  0.000E+00  0.000E+00  1.08326E+03  8.427E-01  7.626E+00  4.576E-02  1.281E+00
   1    3    4     1     4    8.1054E+00  1.6058E-01   7.9448E+00  0.000E+00  0.000E+00  0.000E+00  1.07824E+03  8.369E-01  7.541E+00  4.185E-02  1.279E+00
   1    4    5     2     1    5.9448E+00  2.7323E-01   5.6716E+00  0.000E+00  0.000E+00  0.000E+00  1.07244E+03  5.030E-01  1.200E+01  7.800E-02  1.168E+00
   1    5    6     2     2    5.6716E+00  2.0942E-01   5.4621E+00  0.000E+00  0.000E+00  0.000E+00  1.06700E+03  4.904E-01  1.200E+01  6.000E-02  1.163E+00
   1    6    6     2     3    5.4621E+00  2.0875E-01   5.2534E+00  0.000E+00  0.000E+00  0.000E+00  1.06227E+03  4.792E-01  1.200E+01  6.000E-02  1.160E+00
   1    7    6     2     4    5.2534E+00  2.0808E-01   5.0453E+00  0.000E+00  0.000E+00  0.000E+00  1.05754E+03  4.679E-01  1.200E+01  6.000E-02  1.156E+00
   1    8    6     2     5    5.0453E+00  2.0739E-01   4.8379E+00  0.000E+00  0.000E+00  0.000E+00  1.05282E+03  4.565E-01  1.200E+01  6.000E-02  1.152E+00
   1    3    5     3     1    2.0000E+00  2.8252E-01   1.7175E+00  0.000E+00  0.000E+00  0.000E+00  1.07555E+03  1.909E+00  9.636E+00  7.227E-02  1.955E+00
   1    3    6     3     2    1.7175E+00  2.4905E-01   1.4684E+00  0.000E+00  0.000E+00  0.000E+00  1.07264E+03  1.727E+00  8.909E+00  6.682E-02  1.864E+00
   1    3    7     3     3    1.4684E+00  1.9718E-01   1.2712E+00  0.000E+00  0.000E+00  0.000E+00  1.06987E+03  1.555E+00  8.218E+00  5.547E-02  1.777E+00
   1    4    8     3     4    1.2712E+00  2.2567E-01   1.0456E+00  0.000E+00  0.000E+00  0.000E+00  1.06682E+03  1.364E+00  7.455E+00  6.709E-02  1.682E+00
   1    5    8     3     5    1.0456E+00  1.5790E-01   8.8768E-01  0.000E+00  0.000E+00  0.000E+00  1.06362E+03  1.164E+00  6.655E+00  4.991E-02  1.582E+00
   1    6    8     3     6    8.8768E-01  5.5980E-02   8.3170E-01  0.000E+00  0.000E+00  0.000E+00  1.06158E+03  1.036E+00  6.145E+00  1.844E-02  1.518E+00
   1    5   10     4     1    1.0000E+01  9.0919E-02   9.9091E+00  0.000E+00  0.000E+00  0.000E+00  1.07836E+03  6.368E-01  1.000E+01  2.500E-02  1.212E+00
   1    5    9     4     2    9.9091E+00  1.8158E-01   9.7275E+00  0.000E+00  0.000E+00  0.000E+00  1.07154E+03  6.315E-01  1.000E+01  5.000E-02  1.211E+00
   1    6    8     4     3    9.7275E+00  1.2689E-01   9.6006E+00  0.000E+00  0.000E+00  0.000E+00  1.06381E+03  6.256E-01  1.000E+01  3.500E-02  1.209E+00
   1    6    8     5     1    1.0432E+01  2.2686E-01   1.0205E+01  0.000E+00  0.000E+00  0.000E+00  1.05868E+03  6.790E-01  1.542E+01  6.166E-02  1.226E+00
   1    7    7     5     2    1.0205E+01  2.7894E-01   9.9265E+00  0.000E+00  0.000E+00  0.000E+00  1.05417E+03  6.732E-01  1.519E+01  7.594E-02  1.224E+00
   1    8    7     5     3    9.9265E+00  1.9221E-01   9.7343E+00  0.000E+00  0.000E+00  0.000E+00  1.04992E+03  6.676E-01  1.497E+01  5.241E-02  1.223E+00
   1    8    6     5     4    9.7343E+00  1.3577E-01   9.5985E+00  0.000E+00  0.000E+00  0.000E+00  1.04691E+03  6.637E-01  1.482E+01  3.706E-02  1.221E+00
   1    9    6     6     1    1.4436E+01  2.3244E-01   1.4204E+01  0.000E+00  0.000E+00  0.000E+00  1.04360E+03  8.741E-01  1.200E+01  6.000E-02  1.291E+00
   1   10    7     6     2    1.4204E+01  2.3193E-01   1.3972E+01  0.000E+00  0.000E+00  0.000E+00  1.03905E+03  8.655E-01  1.200E+01  6.000E-02  1.289E+00
   1   11    7     6     3    1.3972E+01  2.3142E-01   1.3741E+01  0.000E+00  0.000E+00  0.000E+00  1.03449E+03  8.570E-01  1.200E+01  6.000E-02  1.286E+00
   1   12    7     6     4    1.3741E+01  2.3090E-01   1.3510E+01  0.000E+00  0.000E+00  0.000E+00  1.02994E+03  8.484E-01  1.200E+01  6.000E-02  1.283E+00
   1   13    7     6     5    1.3510E+01  6.4394E-03   1.3503E+01  0.000E+00  0.000E+00  0.000E+00  1.02675E+03  8.439E-01  1.200E+01  2.400E-02  8.944E-02
   1   14    9     7     1    1.5000E+02  1.3979E+00   1.4860E+02  0.000E+00  0.000E+00  0.000E+00  1.03987E+03  2.288E+00  5.529E+01  5.593E-01  8.331E-01
   1   13    8     7     2    1.4860E+02  2.0261E+00   1.4658E+02  0.000E+00  0.000E+00  0.000E+00  1.03478E+03  2.278E+00  5.525E+01  6.147E-01  1.099E+00
   1   13    7     7     3    1.4658E+02  1.7883E+00   1.4479E+02  0.000E+00  0.000E+00  0.000E+00  1.02969E+03  2.268E+00  5.521E+01  5.583E-01  1.068E+00
   1   13    6     8     1    1.5829E+02  1.1665E+00   1.5712E+02  0.000E+00  0.000E+00  0.000E+00  1.02475E+03  2.870E+00  4.162E+01  4.241E-01  9.168E-01
   1   13    5     8     2    1.5712E+02  4.1346E-01   1.5671E+02  0.000E+00  0.000E+00  0.000E+00  1.01849E+03  2.865E+00  4.154E+01  4.233E-01  3.256E-01
   1   13    4     8     3    1.5671E+02 -1.6070E+00   1.5832E+02  0.000E+00  0.000E+00  0.000E+00  1.01224E+03  2.869E+00  4.160E+01  4.239E+00 -1.264E-01
   1   13    3     8     4    1.5832E+02 -3.2429E+00   1.6156E+02  0.000E+00  0.000E+00  0.000E+00  1.00601E+03  2.885E+00  4.184E+01  4.264E+00 -2.535E-01
   1   13    2     8     5    1.6156E+02 -2.4808E+00   1.6404E+02  0.000E+00  0.000E+00  0.000E+00  9.99780E+02  2.905E+00  4.212E+01  4.292E+00 -1.927E-01
   1   13    1     8     6    1.6404E+02 -1.9586E+00   1.6600E+02  0.000E+00  0.000E+00  0.000E+00  9.94794E+02  2.919E+00  4.233E+01  2.588E+00 -2.522E-01
   1    8    6     9     1    0.0000E+00  0.0000E+00   0.0000E+00  0.000E+00  0.000E+00  0.000E+00  1.07875E+03  0.000E+00  4.000E+00  0.000E+00  1.000E+00
   1    8    5     9     2    0.0000E+00  0.0000E+00   0.0000E+00  0.000E+00  0.000E+00  0.000E+00  1.07825E+03  0.000E+00  4.000E+00  0.000E+00  1.000E+00





UNSATURATED ZONE PACKAGE VOLUMETRIC BUDGET FOR  TIME STEP    30 STRESS PERIOD   37
  ------------------------------------------------------------------------------



     CUMULATIVE VOLUMES      L**3       RATES FOR THIS TIME STEP      L**3/T
     ------------------                 ------------------------

           IN:                                      IN:
           ---                                      ---
        INFILTRATION =  1752728738.6041          INFILTRATION =           0.8475

          OUT:                                     OUT:
          ----                                     ----
              UZF ET =  1284950320.2359                UZF ET =           0.7500
        UZF RECHARGE =    76784426.0969          UZF RECHARGE =           1.4210

            IN - OUT =   390993992.2713              IN - OUT =          -1.3235

          STORAGE:                                 STORAGE:
          --------                                 --------
      STORAGE CHANGE =   390998559.1462        STORAGE CHANGE =          -1.3235

 PERCENT DISCREPANCY IS DIFFERENCE BETWEEN IN-OUT MINUS CHANGE IN STORAGE
 DIVIDED BY THE AVERAGE OF IN AND OUT TIMES 100

 PERCENT DISCREPANCY =          -0.00     PERCENT DISCREPANCY =           0.00






1
  VOLUMETRIC BUDGET FOR AGRICULTURAL FIELDS AT  END OF TIME STEP   30, STRESS PERIOD  37
  ------------------------------------------------------------------------------

     CUMULATIVE VOLUMES      L**3       RATES FOR THIS TIME STEP      L**3/T
     ------------------                 ------------------------

           IN:                                      IN:
           ---                                      ---
               AG WELLS  =  1101049344.0000                 AG WELLS  =           0.0000
      DIVERSION SEGMENTS =   571557568.0000        DIVERSION SEGMENTS =           0.0000
       IRRIGATION PONDS  =           0.0000         IRRIGATION PONDS  =           0.0000
           GW IRRIGATION =           0.0000             GW IRRIGATION =           0.0000
           SW IRRIGATION =           0.0000             SW IRRIGATION =           0.0000
        SYSTEM LOSSES GW =           0.0000          SYSTEM LOSSES GW =           0.0000
        SYSTEM LOSSES SW =           0.0000          SYSTEM LOSSES SW =           0.0000

                TOTAL IN =  1672606976.0000                  TOTAL IN =           0.0000

          OUT:                                     OUT:
          ----                                     ----
               AG WELLS  =           0.0000                 AG WELLS  =           0.0000
      DIVERSION SEGMENTS =           0.0000        DIVERSION SEGMENTS =           0.0000
       IRRIGATION PONDS  =           0.0000         IRRIGATION PONDS  =           0.0000
           GW IRRIGATION =  1101049344.0000             GW IRRIGATION =           0.0000
           SW IRRIGATION =   571569024.0000             SW IRRIGATION =           0.0000
        SYSTEM LOSSES GW =           0.0000          SYSTEM LOSSES GW =           0.0000
        SYSTEM LOSSES SW =           0.0000          SYSTEM LOSSES SW =           0.0000

               TOTAL OUT =  1672618368.0000                 TOTAL OUT =           0.0000

                IN - OUT =      -11392.0000                  IN - OUT =           0.0000

     PERCENT DISCREPANCY =          -0.00         PERCENT DISCREPANCY =           0.00



1
  VOLUMETRIC BUDGET FOR ENTIRE MODEL AT END OF TIME STEP   30, STRESS PERIOD  37
  ------------------------------------------------------------------------------

     CUMULATIVE VOLUMES      L**3       RATES FOR THIS TIME STEP      L**3/T
     ------------------                 ------------------------

           IN:                                      IN:
           ---                                      ---
             STORAGE     =  1679107456.0000               STORAGE     =           5.5402
       CONSTANT HEAD     =           0.0000         CONSTANT HEAD     =           0.0000
     HEAD DEP BOUNDS     =    27347696.0000       HEAD DEP BOUNDS     =           0.2900
      STREAM LEAKAGE     =  1133726976.0000        STREAM LEAKAGE     =          11.9136
        UZF RECHARGE     =    76784456.0000          UZF RECHARGE     =           1.4210
               GW ET     =           0.0000                 GW ET     =           0.0000
     SURFACE LEAKAGE     =           0.0000       SURFACE LEAKAGE     =           0.0000
           AG WELLS      =           0.0000             AG WELLS      =           0.0000

                TOTAL IN =  2916966656.0000                  TOTAL IN =          19.1648

          OUT:                                     OUT:
          ----                                     ----
             STORAGE     =   854003008.0000               STORAGE     =           9.5866
       CONSTANT HEAD     =           0.0000         CONSTANT HEAD     =           0.0000
     HEAD DEP BOUNDS     =    27270212.0000       HEAD DEP BOUNDS     =           0.2869
      STREAM LEAKAGE     =   934625024.0000        STREAM LEAKAGE     =           9.2893
        UZF RECHARGE     =           0.0000          UZF RECHARGE     =           0.0000
               GW ET     =           0.0000                 GW ET     =           0.0000
     SURFACE LEAKAGE     =           0.0000       SURFACE LEAKAGE     =           0.0000
           AG WELLS      =  1101049344.0000             AG WELLS      =           0.0000

               TOTAL OUT =  2916947456.0000                 TOTAL OUT =          19.1628

                IN - OUT =       19200.0000                  IN - OUT =       1.9588E-03

     PERCENT DISCREPANCY =           0.00         PERCENT DISCREPANCY =           0.01






         TIME SUMMARY AT END OF TIME STEP   30 IN STRESS PERIOD   37
                    SECONDS     MINUTES      HOURS       DAYS        YEARS
                    -----------------------------------------------------------
   TIME STEP LENGTH  87667.      1461.1      24.352      1.0147     2.77799E-03
 STRESS PERIOD TIME 2.63000E+06  43833.      730.56      30.440     8.33397E-02
         TOTAL TIME 9.47660E+07 1.57943E+06  26324.      1096.8      3.0030    
1
1
                            STRESS PERIOD NO.   38, LENGTH =   2630000.    
                            -----------------------------------------------

                              NUMBER OF TIME STEPS =    30

                               MULTIPLIER FOR DELT =     1.000

                            INITIAL TIME STEP SIZE =   87666.66    

 REUSING NON-PARAMETER GHB CELLS FROM LAST STRESS PERIOD

      2 GHB CELLS

 REUSING STREAM SEGMENT DATA FROM LAST STRESS PERIOD



            AREAL INFILTRATION RATE
 READING ON UNIT   19 WITH FORMAT: (FREE)              

            1           2           3           4           5           6           7           8           9          10
 ........................................................................................................................
   1   1.0000E-10  2.0000E-10   0.000       0.000       0.000       0.000       0.000       0.000       0.000       0.000    
   2   2.0000E-10  1.0000E-10  2.0000E-10   0.000       0.000      8.0000E-10  8.0000E-10  5.0000E-10   0.000       0.000    
   3    0.000      5.0000E-10  1.0000E-10  1.0000E-10  8.0000E-10  8.0000E-10  5.0000E-10  5.0000E-10   0.000       0.000    
   4   8.0000E-10  5.0000E-10  1.0000E-10  1.0000E-10  1.0000E-10  1.0000E-10  1.0000E-10  1.0000E-10  2.0000E-10   0.000    
   5   8.0000E-10  5.0000E-10  1.0000E-10  1.0000E-10  1.0000E-10  1.0000E-10  1.0000E-10  1.0000E-10  1.0000E-10  1.0000E-10
   6   8.0000E-10  5.0000E-10  5.0000E-10  2.0000E-10  2.0000E-10  1.0000E-10  1.0000E-10  1.0000E-10  1.0000E-10  5.0000E-10
   7   8.0000E-10  5.0000E-10  5.0000E-10  2.0000E-10  2.0000E-10  1.0000E-10  1.0000E-10  2.0000E-10  2.0000E-10   0.000    
   8    0.000      5.0000E-10  5.0000E-10  2.0000E-10  2.0000E-10  1.0000E-10  1.0000E-10  2.0000E-10  5.0000E-10   0.000    
   9    0.000      5.0000E-10  5.0000E-10  2.0000E-10  2.0000E-10  1.0000E-10  1.0000E-10  2.0000E-10  5.0000E-10   0.000    
  10    0.000      5.0000E-10  5.0000E-10  2.0000E-10  2.0000E-10  1.0000E-10  1.0000E-10  2.0000E-10  5.0000E-10  8.0000E-10
  11    0.000      1.0000E-10  1.0000E-10  1.0000E-10  1.0000E-10  1.0000E-10  1.0000E-10  2.0000E-10  5.0000E-10   0.000    
  12   1.0000E-10  1.0000E-10  1.0000E-10  1.0000E-10  1.0000E-10  1.0000E-10  1.0000E-10  1.0000E-10  2.0000E-10   0.000    
  13   1.0000E-10  1.0000E-10  2.0000E-10  2.0000E-10  2.0000E-10  2.0000E-10  2.0000E-10  1.0000E-10  1.0000E-10   0.000    
  14    0.000      2.0000E-10  5.0000E-10  5.0000E-10  5.0000E-10  5.0000E-10  5.0000E-10  2.0000E-10  1.0000E-10   0.000    
  15    0.000       0.000      8.0000E-10  8.0000E-10  8.0000E-10  8.0000E-10   0.000       0.000       0.000       0.000    

                  ET RATE =  5.000000E-10

 USING ET EXTINCTION DEPTH FROM PREVIOUS STRESS PERIOD. CURRENT PERIOD IS:      38

 USING EXTINCTION WATER CONTENT FROM PREVIOUS STRESS PERIOD. CURRENT PERIOD IS:      38

 USING AIR ENTRY PRESSURE FROM PREVIOUS STRESS PERIOD. CURRENT PERIOD IS:      38

 USING ROOT PRESSURE HEAD FROM PREVIOUS STRESS PERIOD. CURRENT PERIOD IS:      38

 USING ROOT ACTIVITY FROM PREVIOUS STRESS PERIOD. CURRENT PERIOD IS:      38

 PROCESSING AG STRESS PERIOD DATA

 READING AG STRESS PERIOD DATA

 READING IRRIGATION SEGMENT

 READING IRRIGATION WELL

 READING SUPPLEMENTAL WELL

 NO IRRPOND OR REUSING IRRPOND DATA FROM LAST STRESS PERIOD

 END PROCESSING AG STRESS PERIOD DATA OPTIONS
 
 SOLVING FOR HEAD 
                                                   Max.-Head-Change                         Max.-Flux-Residual
  Residual-Control   Outer-Iter.   Inner-Iter.     Column Row Layer    Maximum-Head-Change  Column Row Layer    Maximum-Flux-Residual          L2-NORM 
          0                 1           2             4    7     1       0.1529220096E-01       4    7    1         0.8010156737E+00      0.2183154343E+01
          0                 2           2             4    7     1       0.2286168274E-02       4    7    1         0.1205718094E+00      0.2851866743E+00
          0                 3           2             4    7     1       0.3416018070E-03       4    7    1         0.1795254432E-01      0.3731365483E-01
          0                 4           1             4    7     1       0.5101766863E-04       4    7    1         0.2686099439E-02      0.5354070703E-02

    ------------------------------------------------
       NWT REQUIRED            4 OUTER ITERATIONS 
       AND A TOTAL OF          7 INNER ITERATIONS.
    ------------------------------------------------

 NO OUTPUT CONTROL FOR STRESS PERIOD   38   TIME STEP    1
 
 SOLVING FOR HEAD 
                                                   Max.-Head-Change                         Max.-Flux-Residual
  Residual-Control   Outer-Iter.   Inner-Iter.     Column Row Layer    Maximum-Head-Change  Column Row Layer    Maximum-Flux-Residual          L2-NORM 
          0                 1           2             4    7     1       0.1511527926E-01       4    7    1         0.7916875358E+00      0.2167241871E+01
          0                 2           2             4    7     1       0.2259845891E-02       4    7    1         0.1191829569E+00      0.2827255175E+00
          0                 3           2             4    7     1       0.3376864350E-03       4    7    1         0.1774600341E-01      0.3693760982E-01
          0                 4           1             4    7     1       0.5043538986E-04       4    7    1         0.2655375644E-02      0.5297415617E-02

    ------------------------------------------------
       NWT REQUIRED            4 OUTER ITERATIONS 
       AND A TOTAL OF          7 INNER ITERATIONS.
    ------------------------------------------------

 NO OUTPUT CONTROL FOR STRESS PERIOD   38   TIME STEP    2
 
 SOLVING FOR HEAD 
                                                   Max.-Head-Change                         Max.-Flux-Residual
  Residual-Control   Outer-Iter.   Inner-Iter.     Column Row Layer    Maximum-Head-Change  Column Row Layer    Maximum-Flux-Residual          L2-NORM 
          0                 1           2             4    7     1       0.1494159311E-01       4    7    1         0.7825316100E+00      0.2152205116E+01
          0                 2           2             4    7     1       0.2233999791E-02       4    7    1         0.1178193416E+00      0.2803473756E+00
          0                 3           2             4    7     1       0.3338411870E-03       4    7    1         0.1754318748E-01      0.3656880735E-01
          0                 4           1             4    7     1       0.4986343705E-04       4    7    1         0.2625199730E-02      0.5241595350E-02

    ------------------------------------------------
       NWT REQUIRED            4 OUTER ITERATIONS 
       AND A TOTAL OF          7 INNER ITERATIONS.
    ------------------------------------------------

 NO OUTPUT CONTROL FOR STRESS PERIOD   38   TIME STEP    3
 
 SOLVING FOR HEAD 
                                                   Max.-Head-Change                         Max.-Flux-Residual
  Residual-Control   Outer-Iter.   Inner-Iter.     Column Row Layer    Maximum-Head-Change  Column Row Layer    Maximum-Flux-Residual          L2-NORM 
          0                 1           2             4    7     1       0.1477118897E-01       4    7    1         0.7735495805E+00      0.2134877360E+01
          0                 2           2             4    7     1       0.2208640049E-02       4    7    1         0.1164814048E+00      0.2778254184E+00
          0                 3           2             4    7     1       0.3300680127E-03       4    7    1         0.1734418484E-01      0.3619937375E-01
          0                 4           1             4    7     1       0.4930216536E-04       4    7    1         0.2595588410E-02      0.5186680422E-02

    ------------------------------------------------
       NWT REQUIRED            4 OUTER ITERATIONS 
       AND A TOTAL OF          7 INNER ITERATIONS.
    ------------------------------------------------

 NO OUTPUT CONTROL FOR STRESS PERIOD   38   TIME STEP    4
 
 SOLVING FOR HEAD 
                                                   Max.-Head-Change                         Max.-Flux-Residual
  Residual-Control   Outer-Iter.   Inner-Iter.     Column Row Layer    Maximum-Head-Change  Column Row Layer    Maximum-Flux-Residual          L2-NORM 
          0                 1           2             4    7     1       0.1460383786E-01       4    7    1         0.7647294461E+00      0.2117826585E+01
          0                 2           2             4    7     1       0.2183732226E-02       4    7    1         0.1151673421E+00      0.2753445731E+00
          0                 3           2             4    7     1       0.3263617458E-03       4    7    1         0.1714872407E-01      0.3583606144E-01
          0                 4           1             4    7     1       0.4875080132E-04       4    7    1         0.2566501063E-02      0.5132680296E-02

    ------------------------------------------------
       NWT REQUIRED            4 OUTER ITERATIONS 
       AND A TOTAL OF          7 INNER ITERATIONS.
    ------------------------------------------------

 NO OUTPUT CONTROL FOR STRESS PERIOD   38   TIME STEP    5
 
 SOLVING FOR HEAD 
                                                   Max.-Head-Change                         Max.-Flux-Residual
  Residual-Control   Outer-Iter.   Inner-Iter.     Column Row Layer    Maximum-Head-Change  Column Row Layer    Maximum-Flux-Residual          L2-NORM 
          0                 1           2             4    7     1       0.1443959633E-01       4    7    1         0.7560739619E+00      0.2101053155E+01
          0                 2           2             4    7     1       0.2159285896E-02       4    7    1         0.1138776198E+00      0.2729052680E+00
          0                 3           2             4    7     1       0.3227168807E-03       4    7    1         0.1695688399E-01      0.3547132775E-01
          0                 4           1             4    7     1       0.4820637823E-04       4    7    1         0.2537857441E-02      0.5077599693E-02

    ------------------------------------------------
       NWT REQUIRED            4 OUTER ITERATIONS 
       AND A TOTAL OF          7 INNER ITERATIONS.
    ------------------------------------------------

 NO OUTPUT CONTROL FOR STRESS PERIOD   38   TIME STEP    6
 
 SOLVING FOR HEAD 
                                                   Max.-Head-Change                         Max.-Flux-Residual
  Residual-Control   Outer-Iter.   Inner-Iter.     Column Row Layer    Maximum-Head-Change  Column Row Layer    Maximum-Flux-Residual          L2-NORM 
          0                 1           2             4    7     1       0.1427834011E-01       4    7    1         0.7475783343E+00      0.2084537516E+01
          0                 2           2             4    7     1       0.2135251220E-02       4    7    1         0.1126110867E+00      0.2704970738E+00
          0                 3           2             4    7     1       0.3191372911E-03       4    7    1         0.1676812586E-01      0.3511860472E-01
          0                 4           1             4    7     1       0.4767379665E-04       4    7    1         0.2509762513E-02      0.5025302822E-02

    ------------------------------------------------
       NWT REQUIRED            4 OUTER ITERATIONS 
       AND A TOTAL OF          7 INNER ITERATIONS.
    ------------------------------------------------

 NO OUTPUT CONTROL FOR STRESS PERIOD   38   TIME STEP    7
 
 SOLVING FOR HEAD 
                                                   Max.-Head-Change                         Max.-Flux-Residual
  Residual-Control   Outer-Iter.   Inner-Iter.     Column Row Layer    Maximum-Head-Change  Column Row Layer    Maximum-Flux-Residual          L2-NORM 
          0                 1           2             4    7     1       0.1411995028E-01       4    7    1         0.7392353569E+00      0.2068247671E+01
          0                 2           2             4    7     1       0.2111661246E-02       4    7    1         0.1113669028E+00      0.2681280013E+00
          0                 3           2             4    7     1       0.3156250213E-03       4    7    1         0.1658296770E-01      0.3477182187E-01
          0                 4           1             4    7     1       0.4715101630E-04       4    7    1         0.2482191023E-02      0.4973759285E-02

    ------------------------------------------------
       NWT REQUIRED            4 OUTER ITERATIONS 
       AND A TOTAL OF          7 INNER ITERATIONS.
    ------------------------------------------------

 NO OUTPUT CONTROL FOR STRESS PERIOD   38   TIME STEP    8
 
 SOLVING FOR HEAD 
                                                   Max.-Head-Change                         Max.-Flux-Residual
  Residual-Control   Outer-Iter.   Inner-Iter.     Column Row Layer    Maximum-Head-Change  Column Row Layer    Maximum-Flux-Residual          L2-NORM 
          0                 1           2             4    7     1       0.1396437776E-01       4    7    1         0.7310412352E+00      0.2052218400E+01
          0                 2           2             4    7     1       0.2088490519E-02       4    7    1         0.1101448035E+00      0.2657984716E+00
          0                 3           2             4    7     1       0.3121751204E-03       4    7    1         0.1640110175E-01      0.3443117418E-01
          0                 4           1             4    7     1       0.4663751132E-04       4    7    1         0.2455108858E-02      0.4923190004E-02

    ------------------------------------------------
       NWT REQUIRED            4 OUTER ITERATIONS 
       AND A TOTAL OF          7 INNER ITERATIONS.
    ------------------------------------------------

 NO OUTPUT CONTROL FOR STRESS PERIOD   38   TIME STEP    9
 
 SOLVING FOR HEAD 
                                                   Max.-Head-Change                         Max.-Flux-Residual
  Residual-Control   Outer-Iter.   Inner-Iter.     Column Row Layer    Maximum-Head-Change  Column Row Layer    Maximum-Flux-Residual          L2-NORM 
          0                 1           2             4    7     1       0.1381155370E-01       4    7    1         0.7229924520E+00      0.2036440351E+01
          0                 2           2             4    7     1       0.2065728462E-02       4    7    1         0.1089442371E+00      0.2635069835E+00
          0                 3           2             4    7     1       0.3087859625E-03       4    7    1         0.1622244435E-01      0.3409594750E-01
          0                 4           1             4    7     1       0.4613303196E-04       4    7    1         0.2428503074E-02      0.4873306123E-02

    ------------------------------------------------
       NWT REQUIRED            4 OUTER ITERATIONS 
       AND A TOTAL OF          7 INNER ITERATIONS.
    ------------------------------------------------

 NO OUTPUT CONTROL FOR STRESS PERIOD   38   TIME STEP   10
 
 SOLVING FOR HEAD 
                                                   Max.-Head-Change                         Max.-Flux-Residual
  Residual-Control   Outer-Iter.   Inner-Iter.     Column Row Layer    Maximum-Head-Change  Column Row Layer    Maximum-Flux-Residual          L2-NORM 
          0                 1           2             4    7     1       0.1366140830E-01       4    7    1         0.7150854350E+00      0.2020896971E+01
          0                 2           2             4    7     1       0.2043364178E-02       4    7    1         0.1077646449E+00      0.2612509624E+00
          0                 3           2             4    7     1       0.3054558621E-03       4    7    1         0.1604690832E-01      0.3376635131E-01
          0                 4           1             4    7     1       0.4563731988E-04       4    7    1         0.2402360280E-02      0.4824325099E-02

    ------------------------------------------------
       NWT REQUIRED            4 OUTER ITERATIONS 
       AND A TOTAL OF          7 INNER ITERATIONS.
    ------------------------------------------------

 NO OUTPUT CONTROL FOR STRESS PERIOD   38   TIME STEP   11
 
 SOLVING FOR HEAD 
                                                   Max.-Head-Change                         Max.-Flux-Residual
  Residual-Control   Outer-Iter.   Inner-Iter.     Column Row Layer    Maximum-Head-Change  Column Row Layer    Maximum-Flux-Residual          L2-NORM 
          0                 1           2             4    7     1       0.1351387920E-01       4    7    1         0.7073165543E+00      0.2005591718E+01
          0                 2           2             4    7     1       0.2021389259E-02       4    7    1         0.1066055716E+00      0.2590310769E+00
          0                 3           2             4    7     1       0.3021836773E-03       4    7    1         0.1587442930E-01      0.3344215808E-01
          0                 4           1             4    7     1       0.4515021849E-04       4    7    1         0.2376671849E-02      0.4776151379E-02

    ------------------------------------------------
       NWT REQUIRED            4 OUTER ITERATIONS 
       AND A TOTAL OF          7 INNER ITERATIONS.
    ------------------------------------------------

 NO OUTPUT CONTROL FOR STRESS PERIOD   38   TIME STEP   12
 
 SOLVING FOR HEAD 
                                                   Max.-Head-Change                         Max.-Flux-Residual
  Residual-Control   Outer-Iter.   Inner-Iter.     Column Row Layer    Maximum-Head-Change  Column Row Layer    Maximum-Flux-Residual          L2-NORM 
          0                 1           2             4    7     1       0.1336890115E-01       4    7    1         0.6996826432E+00      0.1990515163E+01
          0                 2           2             4    7     1       0.1999793343E-02       4    7    1         0.1054664775E+00      0.2568462374E+00
          0                 3           2             4    7     1       0.2989677951E-03       4    7    1         0.1570492496E-01      0.3312332820E-01
          0                 4           1             4    7     1       0.4467147982E-04       4    7    1         0.2351424895E-02      0.4728778792E-02

    ------------------------------------------------
       NWT REQUIRED            4 OUTER ITERATIONS 
       AND A TOTAL OF          7 INNER ITERATIONS.
    ------------------------------------------------

 NO OUTPUT CONTROL FOR STRESS PERIOD   38   TIME STEP   13
 
 SOLVING FOR HEAD 
                                                   Max.-Head-Change                         Max.-Flux-Residual
  Residual-Control   Outer-Iter.   Inner-Iter.     Column Row Layer    Maximum-Head-Change  Column Row Layer    Maximum-Flux-Residual          L2-NORM 
          0                 1           2             4    7     1       0.1322654457E-01       4    7    1         0.6921875949E+00      0.1975665995E+01
          0                 2           2             4    7     1       0.1978586017E-02       4    7    1         0.1043478976E+00      0.2546958311E+00
          0                 3           2             4    7     1       0.2958095096E-03       4    7    1         0.1553846760E-01      0.3280970984E-01
          0                 4           1             4    7     1       0.4420127769E-04       4    7    1         0.2326629171E-02      0.4682185910E-02

    ------------------------------------------------
       NWT REQUIRED            4 OUTER ITERATIONS 
       AND A TOTAL OF          7 INNER ITERATIONS.
    ------------------------------------------------

 NO OUTPUT CONTROL FOR STRESS PERIOD   38   TIME STEP   14
 
 SOLVING FOR HEAD 
                                                   Max.-Head-Change                         Max.-Flux-Residual
  Residual-Control   Outer-Iter.   Inner-Iter.     Column Row Layer    Maximum-Head-Change  Column Row Layer    Maximum-Flux-Residual          L2-NORM 
          0                 1           2             4    7     1       0.1308647639E-01       4    7    1         0.6848130987E+00      0.1961035216E+01
          0                 2           2             4    7     1       0.1957720703E-02       4    7    1         0.1032472919E+00      0.2525785662E+00
          0                 3           2             4    7     1       0.2927022951E-03       4    7    1         0.1537470025E-01      0.3250110664E-01
          0                 4           1             4    7     1       0.4373869631E-04       4    7    1         0.2302234733E-02      0.4636338232E-02

    ------------------------------------------------
       NWT REQUIRED            4 OUTER ITERATIONS 
       AND A TOTAL OF          7 INNER ITERATIONS.
    ------------------------------------------------

 NO OUTPUT CONTROL FOR STRESS PERIOD   38   TIME STEP   15
 
 SOLVING FOR HEAD 
                                                   Max.-Head-Change                         Max.-Flux-Residual
  Residual-Control   Outer-Iter.   Inner-Iter.     Column Row Layer    Maximum-Head-Change  Column Row Layer    Maximum-Flux-Residual          L2-NORM 
          0                 1           2             4    7     1       0.1294891153E-01       4    7    1         0.6775713363E+00      0.1946622279E+01
          0                 2           2             4    7     1       0.1937225888E-02       4    7    1         0.1021662628E+00      0.2504943808E+00
          0                 3           2             4    7     1       0.2896499275E-03       4    7    1         0.1521383631E-01      0.3219752564E-01
          0                 4           1             4    7     1       0.4328423529E-04       4    7    1         0.2278269760E-02      0.4591247058E-02

    ------------------------------------------------
       NWT REQUIRED            4 OUTER ITERATIONS 
       AND A TOTAL OF          7 INNER ITERATIONS.
    ------------------------------------------------

 NO OUTPUT CONTROL FOR STRESS PERIOD   38   TIME STEP   16
 
 SOLVING FOR HEAD 
                                                   Max.-Head-Change                         Max.-Flux-Residual
  Residual-Control   Outer-Iter.   Inner-Iter.     Column Row Layer    Maximum-Head-Change  Column Row Layer    Maximum-Flux-Residual          L2-NORM 
          0                 1           2             4    7     1       0.1281378619E-01       4    7    1         0.6704585951E+00      0.1932420492E+01
          0                 2           2             4    7     1       0.1917093007E-02       4    7    1         0.1011043444E+00      0.2484425441E+00
          0                 3           2             4    7     1       0.2866512529E-03       4    7    1         0.1505581044E-01      0.3189888342E-01
          0                 4           1             4    7     1       0.4283773893E-04       4    7    1         0.2254725624E-02      0.4546963213E-02

    ------------------------------------------------
       NWT REQUIRED            4 OUTER ITERATIONS 
       AND A TOTAL OF          7 INNER ITERATIONS.
    ------------------------------------------------

 NO OUTPUT CONTROL FOR STRESS PERIOD   38   TIME STEP   17
 
 SOLVING FOR HEAD 
                                                   Max.-Head-Change                         Max.-Flux-Residual
  Residual-Control   Outer-Iter.   Inner-Iter.     Column Row Layer    Maximum-Head-Change  Column Row Layer    Maximum-Flux-Residual          L2-NORM 
          0                 1           2             4    7     1       0.1268076767E-01       4    7    1         0.6634570430E+00      0.1918419691E+01
          0                 2           2             4    7     1       0.1897274590E-02       4    7    1         0.1000589538E+00      0.2464209710E+00
          0                 3           2             4    7     1       0.2836994802E-03       4    7    1         0.1490025742E-01      0.3160483899E-01
          0                 4           1             4    7     1       0.4239823393E-04       4    7    1         0.2231549807E-02      0.4503250360E-02

    ------------------------------------------------
       NWT REQUIRED            4 OUTER ITERATIONS 
       AND A TOTAL OF          7 INNER ITERATIONS.
    ------------------------------------------------

 NO OUTPUT CONTROL FOR STRESS PERIOD   38   TIME STEP   18
 
 SOLVING FOR HEAD 
                                                   Max.-Head-Change                         Max.-Flux-Residual
  Residual-Control   Outer-Iter.   Inner-Iter.     Column Row Layer    Maximum-Head-Change  Column Row Layer    Maximum-Flux-Residual          L2-NORM 
          0                 1           2             4    7     1       0.1255021432E-01       4    7    1         0.6565861257E+00      0.1904626004E+01
          0                 2           2             4    7     1       0.1877820958E-02       4    7    1         0.9903284908E-01      0.2444311679E+00
          0                 3           2             4    7     1       0.2808016952E-03       4    7    1         0.1474756217E-01      0.3131557761E-01
          0                 4           1             4    7     1       0.4196671972E-04       4    7    1         0.2208796733E-02      0.4460272229E-02

    ------------------------------------------------
       NWT REQUIRED            4 OUTER ITERATIONS 
       AND A TOTAL OF          7 INNER ITERATIONS.
    ------------------------------------------------

 NO OUTPUT CONTROL FOR STRESS PERIOD   38   TIME STEP   19
 
 SOLVING FOR HEAD 
                                                   Max.-Head-Change                         Max.-Flux-Residual
  Residual-Control   Outer-Iter.   Inner-Iter.     Column Row Layer    Maximum-Head-Change  Column Row Layer    Maximum-Flux-Residual          L2-NORM 
          0                 1           2             4    7     1       0.1242165860E-01       4    7    1         0.6498203650E+00      0.1891033668E+01
          0                 2           2             4    7     1       0.1858666165E-02       4    7    1         0.9802244261E-01      0.2424717465E+00
          0                 3           2             4    7     1       0.2779485815E-03       4    7    1         0.1459721815E-01      0.3103091784E-01
          0                 4           1             4    7     1       0.4154187860E-04       4    7    1         0.2186394798E-02      0.4418005932E-02

    ------------------------------------------------
       NWT REQUIRED            4 OUTER ITERATIONS 
       AND A TOTAL OF          7 INNER ITERATIONS.
    ------------------------------------------------

 NO OUTPUT CONTROL FOR STRESS PERIOD   38   TIME STEP   20
 
 SOLVING FOR HEAD 
                                                   Max.-Head-Change                         Max.-Flux-Residual
  Residual-Control   Outer-Iter.   Inner-Iter.     Column Row Layer    Maximum-Head-Change  Column Row Layer    Maximum-Flux-Residual          L2-NORM 
          0                 1           2             4    7     1       0.1229532253E-01       4    7    1         0.6431723469E+00      0.1877625308E+01
          0                 2           2             4    7     1       0.1839839565E-02       4    7    1         0.9702938932E-01      0.2405404978E+00
          0                 3           2             4    7     1       0.2751440037E-03       4    7    1         0.1444944486E-01      0.3075056960E-01
          0                 4           1             4    7     1       0.4112421654E-04       4    7    1         0.2164372782E-02      0.4376385745E-02

    ------------------------------------------------
       NWT REQUIRED            4 OUTER ITERATIONS 
       AND A TOTAL OF          7 INNER ITERATIONS.
    ------------------------------------------------

 NO OUTPUT CONTROL FOR STRESS PERIOD   38   TIME STEP   21
 
 SOLVING FOR HEAD 
                                                   Max.-Head-Change                         Max.-Flux-Residual
  Residual-Control   Outer-Iter.   Inner-Iter.     Column Row Layer    Maximum-Head-Change  Column Row Layer    Maximum-Flux-Residual          L2-NORM 
          0                 1           2             4    7     1       0.1217114934E-01       4    7    1         0.6366387099E+00      0.1864408028E+01
          0                 2           2             4    7     1       0.1821334281E-02       4    7    1         0.9605328048E-01      0.2386382350E+00
          0                 3           2             4    7     1       0.2723871456E-03       4    7    1         0.1430419302E-01      0.3047460823E-01
          0                 4           1             4    7     1       0.4071363988E-04       4    7    1         0.2142724905E-02      0.4335420721E-02

    ------------------------------------------------
       NWT REQUIRED            4 OUTER ITERATIONS 
       AND A TOTAL OF          7 INNER ITERATIONS.
    ------------------------------------------------

 NO OUTPUT CONTROL FOR STRESS PERIOD   38   TIME STEP   22
 
 SOLVING FOR HEAD 
                                                   Max.-Head-Change                         Max.-Flux-Residual
  Residual-Control   Outer-Iter.   Inner-Iter.     Column Row Layer    Maximum-Head-Change  Column Row Layer    Maximum-Flux-Residual          L2-NORM 
          0                 1           2             4    7     1       0.1204908653E-01       4    7    1         0.6302166187E+00      0.1851387418E+01
          0                 2           2             4    7     1       0.1803142535E-02       4    7    1         0.9509371061E-01      0.2367656808E+00
          0                 3           2             4    7     1       0.2696768668E-03       4    7    1         0.1416140126E-01      0.3020313460E-01
          0                 4           1             4    7     1       0.4030998242E-04       4    7    1         0.2121442323E-02      0.4295127572E-02

    ------------------------------------------------
       NWT REQUIRED            4 OUTER ITERATIONS 
       AND A TOTAL OF          7 INNER ITERATIONS.
    ------------------------------------------------

 NO OUTPUT CONTROL FOR STRESS PERIOD   38   TIME STEP   23
 
 SOLVING FOR HEAD 
                                                   Max.-Head-Change                         Max.-Flux-Residual
  Residual-Control   Outer-Iter.   Inner-Iter.     Column Row Layer    Maximum-Head-Change  Column Row Layer    Maximum-Flux-Residual          L2-NORM 
          0                 1           2             4    7     1       0.1192894613E-01       4    7    1         0.6238960682E+00      0.1838541450E+01
          0                 2           2             4    7     1       0.1785236966E-02       4    7    1         0.9414921354E-01      0.2349197554E+00
          0                 3           2             4    7     1       0.2670091703E-03       4    7    1         0.1402085700E-01      0.2993570815E-01
          0                 4           1             4    7     1       0.3991265852E-04       4    7    1         0.2100493849E-02      0.4255438266E-02

    ------------------------------------------------
       NWT REQUIRED            4 OUTER ITERATIONS 
       AND A TOTAL OF          7 INNER ITERATIONS.
    ------------------------------------------------

 NO OUTPUT CONTROL FOR STRESS PERIOD   38   TIME STEP   24
 
 SOLVING FOR HEAD 
                                                   Max.-Head-Change                         Max.-Flux-Residual
  Residual-Control   Outer-Iter.   Inner-Iter.     Column Row Layer    Maximum-Head-Change  Column Row Layer    Maximum-Flux-Residual          L2-NORM 
          0                 1           2             4    7     1       0.1181068613E-01       4    7    1         0.6176746958E+00      0.1825871096E+01
          0                 2           2             4    7     1       0.1767611681E-02       4    7    1         0.9321947424E-01      0.2331005570E+00
          0                 3           2             4    7     1       0.2643832321E-03       4    7    1         0.1388251467E-01      0.2967234185E-01
          0                 4           1             4    7     1       0.3952155325E-04       4    7    1         0.2079873203E-02      0.4216356545E-02

    ------------------------------------------------
       NWT REQUIRED            4 OUTER ITERATIONS 
       AND A TOTAL OF          7 INNER ITERATIONS.
    ------------------------------------------------

 NO OUTPUT CONTROL FOR STRESS PERIOD   38   TIME STEP   25
 
 SOLVING FOR HEAD 
                                                   Max.-Head-Change                         Max.-Flux-Residual
  Residual-Control   Outer-Iter.   Inner-Iter.     Column Row Layer    Maximum-Head-Change  Column Row Layer    Maximum-Flux-Residual          L2-NORM 
          0                 1           2             3    7     1       0.1176063909E-01       4    7    1         0.6115649555E+00      0.1813382530E+01
          0                 2           2             4    7     1       0.1750296950E-02       4    7    1         0.9230618058E-01      0.2313084616E+00
          0                 3           2             4    7     1       0.2618031512E-03       4    7    1         0.1374660269E-01      0.2941300819E-01
          0                 4           1             4    7     1       0.3913722187E-04       4    7    1         0.2059611324E-02      0.4177873702E-02

    ------------------------------------------------
       NWT REQUIRED            4 OUTER ITERATIONS 
       AND A TOTAL OF          7 INNER ITERATIONS.
    ------------------------------------------------

 NO OUTPUT CONTROL FOR STRESS PERIOD   38   TIME STEP   26
 
 SOLVING FOR HEAD 
                                                   Max.-Head-Change                         Max.-Flux-Residual
  Residual-Control   Outer-Iter.   Inner-Iter.     Column Row Layer    Maximum-Head-Change  Column Row Layer    Maximum-Flux-Residual          L2-NORM 
          0                 1           2             3    7     1       0.1172128153E-01       4    7    1         0.6055490019E+00      0.1801058657E+01
          0                 2           2             4    7     1       0.1733248127E-02       4    7    1         0.9140685467E-01      0.2295418325E+00
          0                 3           2             4    7     1       0.2592627799E-03       4    7    1         0.1361278261E-01      0.2915759620E-01
          0                 4           1             4    7     1       0.3875881649E-04       4    7    1         0.2039661446E-02      0.4139982336E-02

    ------------------------------------------------
       NWT REQUIRED            4 OUTER ITERATIONS 
       AND A TOTAL OF          7 INNER ITERATIONS.
    ------------------------------------------------

 NO OUTPUT CONTROL FOR STRESS PERIOD   38   TIME STEP   27
 
 SOLVING FOR HEAD 
                                                   Max.-Head-Change                         Max.-Flux-Residual
  Residual-Control   Outer-Iter.   Inner-Iter.     Column Row Layer    Maximum-Head-Change  Column Row Layer    Maximum-Flux-Residual          L2-NORM 
          0                 1           2             3    7     1       0.1168156392E-01       4    7    1         0.5996321969E+00      0.1788911025E+01
          0                 2           2             4    7     1       0.1716478628E-02       4    7    1         0.9052225465E-01      0.2278019828E+00
          0                 3           2             4    7     1       0.2567639542E-03       4    7    1         0.1348115510E-01      0.2890624593E-01
          0                 4           1             4    7     1       0.3838658935E-04       4    7    1         0.2020037536E-02      0.4102698961E-02

    ------------------------------------------------
       NWT REQUIRED            4 OUTER ITERATIONS 
       AND A TOTAL OF          7 INNER ITERATIONS.
    ------------------------------------------------

 NO OUTPUT CONTROL FOR STRESS PERIOD   38   TIME STEP   28
 
 SOLVING FOR HEAD 
                                                   Max.-Head-Change                         Max.-Flux-Residual
  Residual-Control   Outer-Iter.   Inner-Iter.     Column Row Layer    Maximum-Head-Change  Column Row Layer    Maximum-Flux-Residual          L2-NORM 
          0                 1           2             3    7     1       0.1164151083E-01       4    7    1         0.5938122548E+00      0.1776921160E+01
          0                 2           2             4    7     1       0.1699979257E-02       4    7    1         0.8965194853E-01      0.2260857825E+00
          0                 3           2             4    7     1       0.2543050672E-03       4    7    1         0.1335164266E-01      0.2865846066E-01
          0                 4           1             4    7     1       0.3802026797E-04       4    7    1         0.2000726218E-02      0.4065942836E-02

    ------------------------------------------------
       NWT REQUIRED            4 OUTER ITERATIONS 
       AND A TOTAL OF          7 INNER ITERATIONS.
    ------------------------------------------------

 NO OUTPUT CONTROL FOR STRESS PERIOD   38   TIME STEP   29
 
 SOLVING FOR HEAD 
                                                   Max.-Head-Change                         Max.-Flux-Residual
  Residual-Control   Outer-Iter.   Inner-Iter.     Column Row Layer    Maximum-Head-Change  Column Row Layer    Maximum-Flux-Residual          L2-NORM 
          0                 1           2             3    7     1       0.1160090276E-01       4    7    1         0.5880864766E+00      0.1765101241E+01
          0                 2           2             4    7     1       0.1683745212E-02       4    7    1         0.8879562232E-01      0.2243949186E+00
          0                 3           2             4    7     1       0.2518856503E-03       4    7    1         0.1322421355E-01      0.2841442629E-01
          0                 4           1             4    7     1       0.3765981681E-04       4    7    1         0.1981724617E-02      0.4029747994E-02

    ------------------------------------------------
       NWT REQUIRED            4 OUTER ITERATIONS 
       AND A TOTAL OF          7 INNER ITERATIONS.
    ------------------------------------------------

 NO OUTPUT CONTROL FOR STRESS PERIOD   38   TIME STEP   30



 STREAM LISTING     PERIOD     38   STEP       30

 LAYER ROW COL. STREAM  RCH.  FLOW INTO     FLOW TO   FLOW OUT OF   OVRLND.     DIRECT     STREAM       STREAM     STREAM     STREAM   STREAMBED  STREAMBED
                SEG.NO.  NO.  STRM. RCH.    AQUIFER    STRM. RCH.    RUNOFF     PRECIP       ET          HEAD       DEPTH      WIDTH   CONDCTNC.   GRADIENT

   1    1    1     1     1    7.1248E+00  1.2038E-01   7.0044E+00  0.000E+00  0.000E+00  0.000E+00  1.09385E+03  8.024E-01  7.035E+00  3.166E-02  1.267E+00
   1    2    2     1     2    7.0044E+00  1.8491E-01   6.8195E+00  0.000E+00  0.000E+00  0.000E+00  1.08886E+03  7.976E-01  6.956E+00  4.869E-02  1.266E+00
   1    3    3     1     3    6.8195E+00  1.5635E-01   6.6631E+00  0.000E+00  0.000E+00  0.000E+00  1.08321E+03  7.928E-01  6.870E+00  4.122E-02  1.264E+00
   1    3    4     1     4    6.6631E+00  1.4286E-01   6.5203E+00  0.000E+00  0.000E+00  0.000E+00  1.07820E+03  7.886E-01  6.794E+00  3.771E-02  1.263E+00
   1    4    5     2     1    4.5203E+00  2.6715E-01   4.2531E+00  0.000E+00  0.000E+00  0.000E+00  1.07236E+03  4.250E-01  1.200E+01  7.800E-02  1.142E+00
   1    5    6     2     2    4.2531E+00  2.0467E-01   4.0485E+00  0.000E+00  0.000E+00  0.000E+00  1.06692E+03  4.112E-01  1.200E+01  6.000E-02  1.137E+00
   1    6    6     2     3    4.0485E+00  2.0393E-01   3.8445E+00  0.000E+00  0.000E+00  0.000E+00  1.06219E+03  3.989E-01  1.200E+01  6.000E-02  1.133E+00
   1    7    6     2     4    3.8445E+00  2.0319E-01   3.6413E+00  0.000E+00  0.000E+00  0.000E+00  1.05746E+03  3.864E-01  1.200E+01  6.000E-02  1.129E+00
   1    8    6     2     5    3.6413E+00  2.0242E-01   3.4389E+00  0.000E+00  0.000E+00  0.000E+00  1.05273E+03  3.737E-01  1.200E+01  6.000E-02  1.125E+00
   1    3    5     3     1    2.0000E+00  2.8252E-01   1.7175E+00  0.000E+00  0.000E+00  0.000E+00  1.07555E+03  1.909E+00  9.636E+00  7.227E-02  1.955E+00
   1    3    6     3     2    1.7175E+00  2.4905E-01   1.4684E+00  0.000E+00  0.000E+00  0.000E+00  1.07264E+03  1.727E+00  8.909E+00  6.682E-02  1.864E+00
   1    3    7     3     3    1.4684E+00  1.9718E-01   1.2712E+00  0.000E+00  0.000E+00  0.000E+00  1.06987E+03  1.555E+00  8.218E+00  5.547E-02  1.777E+00
   1    4    8     3     4    1.2712E+00  2.2567E-01   1.0456E+00  0.000E+00  0.000E+00  0.000E+00  1.06682E+03  1.364E+00  7.455E+00  6.709E-02  1.682E+00
   1    5    8     3     5    1.0456E+00  1.5790E-01   8.8768E-01  0.000E+00  0.000E+00  0.000E+00  1.06362E+03  1.164E+00  6.655E+00  4.991E-02  1.582E+00
   1    6    8     3     6    8.8768E-01  5.5980E-02   8.3170E-01  0.000E+00  0.000E+00  0.000E+00  1.06158E+03  1.036E+00  6.145E+00  1.844E-02  1.518E+00
   1    5   10     4     1    1.0000E+01  9.0919E-02   9.9091E+00  0.000E+00  0.000E+00  0.000E+00  1.07836E+03  6.368E-01  1.000E+01  2.500E-02  1.212E+00
   1    5    9     4     2    9.9091E+00  1.8158E-01   9.7275E+00  0.000E+00  0.000E+00  0.000E+00  1.07154E+03  6.315E-01  1.000E+01  5.000E-02  1.211E+00
   1    6    8     4     3    9.7275E+00  1.2689E-01   9.6006E+00  0.000E+00  0.000E+00  0.000E+00  1.06381E+03  6.256E-01  1.000E+01  3.500E-02  1.209E+00
   1    6    8     5     1    1.0432E+01  2.2686E-01   1.0205E+01  0.000E+00  0.000E+00  0.000E+00  1.05868E+03  6.790E-01  1.542E+01  6.166E-02  1.226E+00
   1    7    7     5     2    1.0205E+01  2.7894E-01   9.9265E+00  0.000E+00  0.000E+00  0.000E+00  1.05417E+03  6.732E-01  1.519E+01  7.594E-02  1.224E+00
   1    8    7     5     3    9.9265E+00  1.9221E-01   9.7343E+00  0.000E+00  0.000E+00  0.000E+00  1.04992E+03  6.676E-01  1.497E+01  5.241E-02  1.223E+00
   1    8    6     5     4    9.7343E+00  1.3577E-01   9.5985E+00  0.000E+00  0.000E+00  0.000E+00  1.04691E+03  6.637E-01  1.482E+01  3.706E-02  1.221E+00
   1    9    6     6     1    1.3037E+01  2.2931E-01   1.2808E+01  0.000E+00  0.000E+00  0.000E+00  1.04355E+03  8.218E-01  1.200E+01  6.000E-02  1.274E+00
   1   10    7     6     2    1.2808E+01  2.2878E-01   1.2579E+01  0.000E+00  0.000E+00  0.000E+00  1.03899E+03  8.131E-01  1.200E+01  6.000E-02  1.271E+00
   1   11    7     6     3    1.2579E+01  2.2825E-01   1.2351E+01  0.000E+00  0.000E+00  0.000E+00  1.03444E+03  8.042E-01  1.200E+01  6.000E-02  1.268E+00
   1   12    7     6     4    1.2351E+01  2.2772E-01   1.2123E+01  0.000E+00  0.000E+00  0.000E+00  1.02989E+03  7.954E-01  1.200E+01  6.000E-02  1.265E+00
   1   13    7     6     5    1.2123E+01  5.6109E-03   1.2118E+01  0.000E+00  0.000E+00  0.000E+00  1.02670E+03  7.908E-01  1.200E+01  2.400E-02  7.793E-02
   1   14    9     7     1    1.5000E+02  1.3991E+00   1.4860E+02  0.000E+00  0.000E+00  0.000E+00  1.03987E+03  2.288E+00  5.529E+01  5.593E-01  8.339E-01
   1   13    8     7     2    1.4860E+02  2.0306E+00   1.4657E+02  0.000E+00  0.000E+00  0.000E+00  1.03478E+03  2.278E+00  5.525E+01  6.147E-01  1.101E+00
   1   13    7     7     3    1.4657E+02  1.7986E+00   1.4477E+02  0.000E+00  0.000E+00  0.000E+00  1.02969E+03  2.268E+00  5.521E+01  5.583E-01  1.074E+00
   1   13    6     8     1    1.5689E+02  1.1696E+00   1.5572E+02  0.000E+00  0.000E+00  0.000E+00  1.02474E+03  2.861E+00  4.148E+01  4.227E-01  9.224E-01
   1   13    5     8     2    1.5572E+02  4.1824E-01   1.5530E+02  0.000E+00  0.000E+00  0.000E+00  1.01848E+03  2.855E+00  4.140E+01  4.219E-01  3.305E-01
   1   13    4     8     3    1.5530E+02 -1.5869E+00   1.5689E+02  0.000E+00  0.000E+00  0.000E+00  1.01223E+03  2.859E+00  4.146E+01  4.225E+00 -1.252E-01
   1   13    3     8     4    1.5689E+02 -3.2314E+00   1.6012E+02  0.000E+00  0.000E+00  0.000E+00  1.00600E+03  2.876E+00  4.170E+01  4.249E+00 -2.535E-01
   1   13    2     8     5    1.6012E+02 -2.4800E+00   1.6260E+02  0.000E+00  0.000E+00  0.000E+00  9.99770E+02  2.895E+00  4.198E+01  4.278E+00 -1.933E-01
   1   13    1     8     6    1.6260E+02 -1.9597E+00   1.6456E+02  0.000E+00  0.000E+00  0.000E+00  9.94785E+02  2.910E+00  4.219E+01  2.580E+00 -2.532E-01
   1    8    6     9     1    0.0000E+00  0.0000E+00   0.0000E+00  0.000E+00  0.000E+00  0.000E+00  1.07875E+03  0.000E+00  4.000E+00  0.000E+00  1.000E+00
   1    8    5     9     2    0.0000E+00  0.0000E+00   0.0000E+00  0.000E+00  0.000E+00  0.000E+00  1.07825E+03  0.000E+00  4.000E+00  0.000E+00  1.000E+00





UNSATURATED ZONE PACKAGE VOLUMETRIC BUDGET FOR  TIME STEP    30 STRESS PERIOD   38
  ------------------------------------------------------------------------------



     CUMULATIVE VOLUMES      L**3       RATES FOR THIS TIME STEP      L**3/T
     ------------------                 ------------------------

           IN:                                      IN:
           ---                                      ---
        INFILTRATION =  1754957663.4769          INFILTRATION =           0.8475

          OUT:                                     OUT:
          ----                                     ----
              UZF ET =  1286922820.1487                UZF ET =           0.7500
        UZF RECHARGE =    80085754.0940          UZF RECHARGE =           1.1232

            IN - OUT =   387949089.2342              IN - OUT =          -1.0257

          STORAGE:                                 STORAGE:
          --------                                 --------
      STORAGE CHANGE =   387953656.1345        STORAGE CHANGE =          -1.0257

 PERCENT DISCREPANCY IS DIFFERENCE BETWEEN IN-OUT MINUS CHANGE IN STORAGE
 DIVIDED BY THE AVERAGE OF IN AND OUT TIMES 100

 PERCENT DISCREPANCY =          -0.00     PERCENT DISCREPANCY =           0.00






1
  VOLUMETRIC BUDGET FOR AGRICULTURAL FIELDS AT  END OF TIME STEP   30, STRESS PERIOD  38
  ------------------------------------------------------------------------------

     CUMULATIVE VOLUMES      L**3       RATES FOR THIS TIME STEP      L**3/T
     ------------------                 ------------------------

           IN:                                      IN:
           ---                                      ---
               AG WELLS  =  1101049344.0000                 AG WELLS  =           0.0000
      DIVERSION SEGMENTS =   571557568.0000        DIVERSION SEGMENTS =           0.0000
       IRRIGATION PONDS  =           0.0000         IRRIGATION PONDS  =           0.0000
           GW IRRIGATION =           0.0000             GW IRRIGATION =           0.0000
           SW IRRIGATION =           0.0000             SW IRRIGATION =           0.0000
        SYSTEM LOSSES GW =           0.0000          SYSTEM LOSSES GW =           0.0000
        SYSTEM LOSSES SW =           0.0000          SYSTEM LOSSES SW =           0.0000

                TOTAL IN =  1672606976.0000                  TOTAL IN =           0.0000

          OUT:                                     OUT:
          ----                                     ----
               AG WELLS  =           0.0000                 AG WELLS  =           0.0000
      DIVERSION SEGMENTS =           0.0000        DIVERSION SEGMENTS =           0.0000
       IRRIGATION PONDS  =           0.0000         IRRIGATION PONDS  =           0.0000
           GW IRRIGATION =  1101049344.0000             GW IRRIGATION =           0.0000
           SW IRRIGATION =   571569024.0000             SW IRRIGATION =           0.0000
        SYSTEM LOSSES GW =           0.0000          SYSTEM LOSSES GW =           0.0000
        SYSTEM LOSSES SW =           0.0000          SYSTEM LOSSES SW =           0.0000

               TOTAL OUT =  1672618368.0000                 TOTAL OUT =           0.0000

                IN - OUT =      -11392.0000                  IN - OUT =           0.0000

     PERCENT DISCREPANCY =          -0.00         PERCENT DISCREPANCY =           0.00



1
  VOLUMETRIC BUDGET FOR ENTIRE MODEL AT END OF TIME STEP   30, STRESS PERIOD  38
  ------------------------------------------------------------------------------

     CUMULATIVE VOLUMES      L**3       RATES FOR THIS TIME STEP      L**3/T
     ------------------                 ------------------------

           IN:                                      IN:
           ---                                      ---
             STORAGE     =  1692462336.0000               STORAGE     =           4.5307
       CONSTANT HEAD     =           0.0000         CONSTANT HEAD     =           0.0000
     HEAD DEP BOUNDS     =    28110466.0000       HEAD DEP BOUNDS     =           0.2901
      STREAM LEAKAGE     =  1164791680.0000        STREAM LEAKAGE     =          11.8233
        UZF RECHARGE     =    80085784.0000          UZF RECHARGE     =           1.1232
               GW ET     =           0.0000                 GW ET     =           0.0000
     SURFACE LEAKAGE     =           0.0000       SURFACE LEAKAGE     =           0.0000
           AG WELLS      =           0.0000             AG WELLS      =           0.0000

                TOTAL IN =  2965450240.0000                  TOTAL IN =          17.7672

          OUT:                                     OUT:
          ----                                     ----
             STORAGE     =   877250368.0000               STORAGE     =           8.2211
       CONSTANT HEAD     =           0.0000         CONSTANT HEAD     =           0.0000
     HEAD DEP BOUNDS     =    28024492.0000       HEAD DEP BOUNDS     =           0.2867
      STREAM LEAKAGE     =   959102976.0000        STREAM LEAKAGE     =           9.2579
        UZF RECHARGE     =           0.0000          UZF RECHARGE     =           0.0000
               GW ET     =           0.0000                 GW ET     =           0.0000
     SURFACE LEAKAGE     =           0.0000       SURFACE LEAKAGE     =           0.0000
           AG WELLS      =  1101049344.0000             AG WELLS      =           0.0000

               TOTAL OUT =  2965427200.0000                 TOTAL OUT =          17.7657

                IN - OUT =       23040.0000                  IN - OUT =       1.4610E-03

     PERCENT DISCREPANCY =           0.00         PERCENT DISCREPANCY =           0.01






         TIME SUMMARY AT END OF TIME STEP   30 IN STRESS PERIOD   38
                    SECONDS     MINUTES      HOURS       DAYS        YEARS
                    -----------------------------------------------------------
   TIME STEP LENGTH  87667.      1461.1      24.352      1.0147     2.77799E-03
 STRESS PERIOD TIME 2.63000E+06  43833.      730.56      30.440     8.33397E-02
         TOTAL TIME 9.73959E+07 1.62326E+06  27054.      1127.3      3.0863    
1
1
                            STRESS PERIOD NO.   39, LENGTH =   2630000.    
                            -----------------------------------------------

                              NUMBER OF TIME STEPS =    30

                               MULTIPLIER FOR DELT =     1.000

                            INITIAL TIME STEP SIZE =   87666.66    

 REUSING NON-PARAMETER GHB CELLS FROM LAST STRESS PERIOD

      2 GHB CELLS

 REUSING STREAM SEGMENT DATA FROM LAST STRESS PERIOD



            AREAL INFILTRATION RATE
 READING ON UNIT   19 WITH FORMAT: (FREE)              

            1           2           3           4           5           6           7           8           9          10
 ........................................................................................................................
   1   1.0000E-10  2.0000E-10   0.000       0.000       0.000       0.000       0.000       0.000       0.000       0.000    
   2   2.0000E-10  1.0000E-10  2.0000E-10   0.000       0.000      8.0000E-10  8.0000E-10  5.0000E-10   0.000       0.000    
   3    0.000      5.0000E-10  1.0000E-10  1.0000E-10  8.0000E-10  8.0000E-10  5.0000E-10  5.0000E-10   0.000       0.000    
   4   8.0000E-10  5.0000E-10  1.0000E-10  1.0000E-10  1.0000E-10  1.0000E-10  1.0000E-10  1.0000E-10  2.0000E-10   0.000    
   5   8.0000E-10  5.0000E-10  1.0000E-10  1.0000E-10  1.0000E-10  1.0000E-10  1.0000E-10  1.0000E-10  1.0000E-10  1.0000E-10
   6   8.0000E-10  5.0000E-10  5.0000E-10  2.0000E-10  2.0000E-10  1.0000E-10  1.0000E-10  1.0000E-10  1.0000E-10  5.0000E-10
   7   8.0000E-10  5.0000E-10  5.0000E-10  2.0000E-10  2.0000E-10  1.0000E-10  1.0000E-10  2.0000E-10  2.0000E-10   0.000    
   8    0.000      5.0000E-10  5.0000E-10  2.0000E-10  2.0000E-10  1.0000E-10  1.0000E-10  2.0000E-10  5.0000E-10   0.000    
   9    0.000      5.0000E-10  5.0000E-10  2.0000E-10  2.0000E-10  1.0000E-10  1.0000E-10  2.0000E-10  5.0000E-10   0.000    
  10    0.000      5.0000E-10  5.0000E-10  2.0000E-10  2.0000E-10  1.0000E-10  1.0000E-10  2.0000E-10  5.0000E-10  8.0000E-10
  11    0.000      1.0000E-10  1.0000E-10  1.0000E-10  1.0000E-10  1.0000E-10  1.0000E-10  2.0000E-10  5.0000E-10   0.000    
  12   1.0000E-10  1.0000E-10  1.0000E-10  1.0000E-10  1.0000E-10  1.0000E-10  1.0000E-10  1.0000E-10  2.0000E-10   0.000    
  13   1.0000E-10  1.0000E-10  2.0000E-10  2.0000E-10  2.0000E-10  2.0000E-10  2.0000E-10  1.0000E-10  1.0000E-10   0.000    
  14    0.000      2.0000E-10  5.0000E-10  5.0000E-10  5.0000E-10  5.0000E-10  5.0000E-10  2.0000E-10  1.0000E-10   0.000    
  15    0.000       0.000      8.0000E-10  8.0000E-10  8.0000E-10  8.0000E-10   0.000       0.000       0.000       0.000    

                  ET RATE =  5.000000E-10

 USING ET EXTINCTION DEPTH FROM PREVIOUS STRESS PERIOD. CURRENT PERIOD IS:      39

 USING EXTINCTION WATER CONTENT FROM PREVIOUS STRESS PERIOD. CURRENT PERIOD IS:      39

 USING AIR ENTRY PRESSURE FROM PREVIOUS STRESS PERIOD. CURRENT PERIOD IS:      39

 USING ROOT PRESSURE HEAD FROM PREVIOUS STRESS PERIOD. CURRENT PERIOD IS:      39

 USING ROOT ACTIVITY FROM PREVIOUS STRESS PERIOD. CURRENT PERIOD IS:      39

 PROCESSING AG STRESS PERIOD DATA

 READING AG STRESS PERIOD DATA

 READING IRRIGATION SEGMENT

 READING IRRIGATION WELL

 READING SUPPLEMENTAL WELL

 NO IRRPOND OR REUSING IRRPOND DATA FROM LAST STRESS PERIOD

 END PROCESSING AG STRESS PERIOD DATA OPTIONS
 
 SOLVING FOR HEAD 
                                                   Max.-Head-Change                         Max.-Flux-Residual
  Residual-Control   Outer-Iter.   Inner-Iter.     Column Row Layer    Maximum-Head-Change  Column Row Layer    Maximum-Flux-Residual          L2-NORM 
          0                 1           2             3    7     1       0.1155976682E-01       4    7    1         0.5824453743E+00      0.1753437422E+01
          0                 2           2             4    7     1       0.1667751041E-02       4    7    1         0.8795190969E-01      0.2227277271E+00
          0                 3           2             4    7     1       0.2495020299E-03       4    7    1         0.1309867045E-01      0.2817399445E-01
          0                 4           1             4    7     1       0.3730470427E-04       4    7    1         0.1963004189E-02      0.3994092386E-02

    ------------------------------------------------
       NWT REQUIRED            4 OUTER ITERATIONS 
       AND A TOTAL OF          7 INNER ITERATIONS.
    ------------------------------------------------

 NO OUTPUT CONTROL FOR STRESS PERIOD   39   TIME STEP    1
 
 SOLVING FOR HEAD 
                                                   Max.-Head-Change                         Max.-Flux-Residual
  Residual-Control   Outer-Iter.   Inner-Iter.     Column Row Layer    Maximum-Head-Change  Column Row Layer    Maximum-Flux-Residual          L2-NORM 
          0                 1           2             3    7     1       0.1151813065E-01       4    7    1         0.5769017973E+00      0.1741925765E+01
          0                 2           2             4    7     1       0.1652029073E-02       4    7    1         0.8712258998E-01      0.2210839753E+00
          0                 3           2             4    7     1       0.2471586857E-03       4    7    1         0.1297525961E-01      0.2793714473E-01
          0                 4           1             4    7     1       0.3695555251E-04       4    7    1         0.1944599100E-02      0.3958974108E-02

    ------------------------------------------------
       NWT REQUIRED            4 OUTER ITERATIONS 
       AND A TOTAL OF          7 INNER ITERATIONS.
    ------------------------------------------------

 NO OUTPUT CONTROL FOR STRESS PERIOD   39   TIME STEP    2
 
 SOLVING FOR HEAD 
                                                   Max.-Head-Change                         Max.-Flux-Residual
  Residual-Control   Outer-Iter.   Inner-Iter.     Column Row Layer    Maximum-Head-Change  Column Row Layer    Maximum-Flux-Residual          L2-NORM 
          0                 1           2             3    7     1       0.1147650300E-01       4    7    1         0.5714384435E+00      0.1729659617E+01
          0                 2           2             4    7     1       0.1636537584E-02       4    7    1         0.8630534854E-01      0.2193979964E+00
          0                 3           2             4    7     1       0.2448499853E-03       4    7    1         0.1285366545E-01      0.2770142182E-01
          0                 4           1             4    7     1       0.3661160293E-04       4    7    1         0.1926466961E-02      0.3924423164E-02

    ------------------------------------------------
       NWT REQUIRED            4 OUTER ITERATIONS 
       AND A TOTAL OF          7 INNER ITERATIONS.
    ------------------------------------------------

 NO OUTPUT CONTROL FOR STRESS PERIOD   39   TIME STEP    3
 
 SOLVING FOR HEAD 
                                                   Max.-Head-Change                         Max.-Flux-Residual
  Residual-Control   Outer-Iter.   Inner-Iter.     Column Row Layer    Maximum-Head-Change  Column Row Layer    Maximum-Flux-Residual          L2-NORM 
          0                 1           2             3    7     1       0.1143417286E-01       4    7    1         0.5660688648E+00      0.1718087605E+01
          0                 2           2             4    7     1       0.1621309747E-02       4    7    1         0.8550200252E-01      0.2177759143E+00
          0                 3           2             4    7     1       0.2425804763E-03       4    7    1         0.1273414094E-01      0.2747110644E-01
          0                 4           1             4    7     1       0.3627347881E-04       4    7    1         0.1908642236E-02      0.3890455770E-02

    ------------------------------------------------
       NWT REQUIRED            4 OUTER ITERATIONS 
       AND A TOTAL OF          7 INNER ITERATIONS.
    ------------------------------------------------

 NO OUTPUT CONTROL FOR STRESS PERIOD   39   TIME STEP    4
 
 SOLVING FOR HEAD 
                                                   Max.-Head-Change                         Max.-Flux-Residual
  Residual-Control   Outer-Iter.   Inner-Iter.     Column Row Layer    Maximum-Head-Change  Column Row Layer    Maximum-Flux-Residual          L2-NORM 
          0                 1           2             3    7     1       0.1139165372E-01       4    7    1         0.5607761587E+00      0.1707040980E+01
          0                 2           2             4    7     1       0.1606298930E-02       4    7    1         0.8471009304E-01      0.2162033523E+00
          0                 3           2             4    7     1       0.2403432765E-03       4    7    1         0.1261632047E-01      0.2724517095E-01
          0                 4           1             4    7     1       0.3594016332E-04       4    7    1         0.1891071074E-02      0.3856978912E-02

    ------------------------------------------------
       NWT REQUIRED            4 OUTER ITERATIONS 
       AND A TOTAL OF          7 INNER ITERATIONS.
    ------------------------------------------------

 NO OUTPUT CONTROL FOR STRESS PERIOD   39   TIME STEP    5
 
 SOLVING FOR HEAD 
                                                   Max.-Head-Change                         Max.-Flux-Residual
  Residual-Control   Outer-Iter.   Inner-Iter.     Column Row Layer    Maximum-Head-Change  Column Row Layer    Maximum-Flux-Residual          L2-NORM 
          0                 1           2             3    7     1       0.1134872296E-01       4    7    1         0.5555732458E+00      0.1696145923E+01
          0                 2           2             4    7     1       0.1591539496E-02       4    7    1         0.8393146345E-01      0.2146535138E+00
          0                 3           2             4    7     1       0.2381433316E-03       4    7    1         0.1250047047E-01      0.2702264658E-01
          0                 4           1             4    7     1       0.3561236917E-04       4    7    1         0.1873791814E-02      0.3824007480E-02

    ------------------------------------------------
       NWT REQUIRED            4 OUTER ITERATIONS 
       AND A TOTAL OF          7 INNER ITERATIONS.
    ------------------------------------------------

 NO OUTPUT CONTROL FOR STRESS PERIOD   39   TIME STEP    6
 
 SOLVING FOR HEAD 
                                                   Max.-Head-Change                         Max.-Flux-Residual
  Residual-Control   Outer-Iter.   Inner-Iter.     Column Row Layer    Maximum-Head-Change  Column Row Layer    Maximum-Flux-Residual          L2-NORM 
          0                 1           2             3    7     1       0.1130540245E-01       4    7    1         0.5504504752E+00      0.1685388708E+01
          0                 2           2             4    7     1       0.1577005085E-02       4    7    1         0.8316470865E-01      0.2131241669E+00
          0                 3           2             4    7     1       0.2359767864E-03       4    7    1         0.1238638554E-01      0.2680317817E-01
          0                 4           1             4    7     1       0.3528953133E-04       4    7    1         0.1856774358E-02      0.3791493741E-02

    ------------------------------------------------
       NWT REQUIRED            4 OUTER ITERATIONS 
       AND A TOTAL OF          7 INNER ITERATIONS.
    ------------------------------------------------

 NO OUTPUT CONTROL FOR STRESS PERIOD   39   TIME STEP    7
 
 SOLVING FOR HEAD 
                                                   Max.-Head-Change                         Max.-Flux-Residual
  Residual-Control   Outer-Iter.   Inner-Iter.     Column Row Layer    Maximum-Head-Change  Column Row Layer    Maximum-Flux-Residual          L2-NORM 
          0                 1           2             3    7     1       0.1126195616E-01       4    7    1         0.5454058617E+00      0.1674780578E+01
          0                 2           2             4    7     1       0.1562692029E-02       4    7    1         0.8240960837E-01      0.2116163251E+00
          0                 3           2             4    7     1       0.2338432491E-03       4    7    1         0.1227403979E-01      0.2658699865E-01
          0                 4           1             4    7     1       0.3497161331E-04       4    7    1         0.1840016164E-02      0.3759682634E-02

    ------------------------------------------------
       NWT REQUIRED            4 OUTER ITERATIONS 
       AND A TOTAL OF          7 INNER ITERATIONS.
    ------------------------------------------------

 NO OUTPUT CONTROL FOR STRESS PERIOD   39   TIME STEP    8
 
 SOLVING FOR HEAD 
                                                   Max.-Head-Change                         Max.-Flux-Residual
  Residual-Control   Outer-Iter.   Inner-Iter.     Column Row Layer    Maximum-Head-Change  Column Row Layer    Maximum-Flux-Residual          L2-NORM 
          0                 1           2             3    7     1       0.1121815860E-01       4    7    1         0.5404378237E+00      0.1664308512E+01
          0                 2           2             4    7     1       0.1548593351E-02       4    7    1         0.8166583294E-01      0.2101298308E+00
          0                 3           2             4    7     1       0.2317414842E-03       4    7    1         0.1216337446E-01      0.2637378651E-01
          0                 4           1             4    7     1       0.3465840450E-04       4    7    1         0.1823506883E-02      0.3727881466E-02

    ------------------------------------------------
       NWT REQUIRED            4 OUTER ITERATIONS 
       AND A TOTAL OF          7 INNER ITERATIONS.
    ------------------------------------------------

 NO OUTPUT CONTROL FOR STRESS PERIOD   39   TIME STEP    9
 
 SOLVING FOR HEAD 
                                                   Max.-Head-Change                         Max.-Flux-Residual
  Residual-Control   Outer-Iter.   Inner-Iter.     Column Row Layer    Maximum-Head-Change  Column Row Layer    Maximum-Flux-Residual          L2-NORM 
          0                 1           2             3    7     1       0.1117427109E-01       4    7    1         0.5355443572E+00      0.1653976083E+01
          0                 2           2             4    7     1       0.1534705926E-02       4    7    1         0.8093318145E-01      0.2086632764E+00
          0                 3           2             4    7     1       0.2296712143E-03       4    7    1         0.1205436883E-01      0.2616361734E-01
          0                 4           1             4    7     1       0.3434988828E-04       4    7    1         0.1807244944E-02      0.3696747948E-02

    ------------------------------------------------
       NWT REQUIRED            4 OUTER ITERATIONS 
       AND A TOTAL OF          7 INNER ITERATIONS.
    ------------------------------------------------

 NO OUTPUT CONTROL FOR STRESS PERIOD   39   TIME STEP   10
 
 SOLVING FOR HEAD 
                                                   Max.-Head-Change                         Max.-Flux-Residual
  Residual-Control   Outer-Iter.   Inner-Iter.     Column Row Layer    Maximum-Head-Change  Column Row Layer    Maximum-Flux-Residual          L2-NORM 
          0                 1           2             3    7     1       0.1113006680E-01       4    7    1         0.5307239691E+00      0.1643769827E+01
          0                 2           2             4    7     1       0.1521023114E-02       4    7    1         0.8021133797E-01      0.2072158590E+00
          0                 3           2             4    7     1       0.2276312798E-03       4    7    1         0.1194696716E-01      0.2595634781E-01
          0                 4           1             4    7     1       0.3404587043E-04       4    7    1         0.1791220713E-02      0.3666049082E-02

    ------------------------------------------------
       NWT REQUIRED            4 OUTER ITERATIONS 
       AND A TOTAL OF          7 INNER ITERATIONS.
    ------------------------------------------------

 NO OUTPUT CONTROL FOR STRESS PERIOD   39   TIME STEP   11
 
 SOLVING FOR HEAD 
                                                   Max.-Head-Change                         Max.-Flux-Residual
  Residual-Control   Outer-Iter.   Inner-Iter.     Column Row Layer    Maximum-Head-Change  Column Row Layer    Maximum-Flux-Residual          L2-NORM 
          0                 1           2             3    7     1       0.1108556561E-01       4    7    1         0.5259820536E+00      0.1633697210E+01
          0                 2           2             4    7     1       0.1507560705E-02       4    7    1         0.7950112753E-01      0.2057884279E+00
          0                 3           2             4    7     1       0.2256240603E-03       4    7    1         0.1184129422E-01      0.2575206839E-01
          0                 4           1             4    7     1       0.3374670748E-04       4    7    1         0.1775452948E-02      0.3635795512E-02

    ------------------------------------------------
       NWT REQUIRED            4 OUTER ITERATIONS 
       AND A TOTAL OF          7 INNER ITERATIONS.
    ------------------------------------------------

 NO OUTPUT CONTROL FOR STRESS PERIOD   39   TIME STEP   12
 
 SOLVING FOR HEAD 
                                                   Max.-Head-Change                         Max.-Flux-Residual
  Residual-Control   Outer-Iter.   Inner-Iter.     Column Row Layer    Maximum-Head-Change  Column Row Layer    Maximum-Flux-Residual          L2-NORM 
          0                 1           2             3    7     1       0.1104078632E-01       4    7    1         0.5213093860E+00      0.1623751516E+01
          0                 2           2             4    7     1       0.1494292317E-02       4    7    1         0.7880116451E-01      0.2043795847E+00
          0                 3           2             4    7     1       0.2236456118E-03       4    7    1         0.1173714234E-01      0.2555051502E-01
          0                 4           1             4    7     1       0.3345181143E-04       4    7    1         0.1759910651E-02      0.3605946622E-02

    ------------------------------------------------
       NWT REQUIRED            4 OUTER ITERATIONS 
       AND A TOTAL OF          7 INNER ITERATIONS.
    ------------------------------------------------

 NO OUTPUT CONTROL FOR STRESS PERIOD   39   TIME STEP   13
 
 SOLVING FOR HEAD 
                                                   Max.-Head-Change                         Max.-Flux-Residual
  Residual-Control   Outer-Iter.   Inner-Iter.     Column Row Layer    Maximum-Head-Change  Column Row Layer    Maximum-Flux-Residual          L2-NORM 
          0                 1           2             3    7     1       0.1099598874E-01       4    7    1         0.5167041840E+00      0.1613936110E+01
          0                 2           2             4    7     1       0.1481216101E-02       4    7    1         0.7811130326E-01      0.2029902420E+00
          0                 3           2             4    7     1       0.2216959002E-03       4    7    1         0.1163450205E-01      0.2535188356E-01
          0                 4           1             4    7     1       0.3316120891E-04       4    7    1         0.1744594281E-02      0.3576534634E-02

    ------------------------------------------------
       NWT REQUIRED            4 OUTER ITERATIONS 
       AND A TOTAL OF          7 INNER ITERATIONS.
    ------------------------------------------------

 NO OUTPUT CONTROL FOR STRESS PERIOD   39   TIME STEP   14
 
 SOLVING FOR HEAD 
                                                   Max.-Head-Change                         Max.-Flux-Residual
  Residual-Control   Outer-Iter.   Inner-Iter.     Column Row Layer    Maximum-Head-Change  Column Row Layer    Maximum-Flux-Residual          L2-NORM 
          0                 1           2             3    7     1       0.1095094209E-01       4    7    1         0.5121652826E+00      0.1604242050E+01
          0                 2           2             4    7     1       0.1468325821E-02       4    7    1         0.7743126022E-01      0.2016187256E+00
          0                 3           2             4    7     1       0.2197737714E-03       4    7    1         0.1153331969E-01      0.2515587508E-01
          0                 4           1             4    7     1       0.3287469871E-04       4    7    1         0.1729494131E-02      0.3547510559E-02

    ------------------------------------------------
       NWT REQUIRED            4 OUTER ITERATIONS 
       AND A TOTAL OF          7 INNER ITERATIONS.
    ------------------------------------------------

 NO OUTPUT CONTROL FOR STRESS PERIOD   39   TIME STEP   15
 
 SOLVING FOR HEAD 
                                                   Max.-Head-Change                         Max.-Flux-Residual
  Residual-Control   Outer-Iter.   Inner-Iter.     Column Row Layer    Maximum-Head-Change  Column Row Layer    Maximum-Flux-Residual          L2-NORM 
          0                 1           2             3    7     1       0.1090590516E-01       4    7    1         0.5076983123E+00      0.1594671351E+01
          0                 2           2             4    7     1       0.1455637611E-02       4    7    1         0.7676189178E-01      0.2002657693E+00
          0                 3           2             4    7     1       0.2178816305E-03       4    7    1         0.1143372153E-01      0.2496265898E-01
          0                 4           1             4    7     1       0.3259263860E-04       4    7    1         0.1714629053E-02      0.3518905544E-02

    ------------------------------------------------
       NWT REQUIRED            4 OUTER ITERATIONS 
       AND A TOTAL OF          7 INNER ITERATIONS.
    ------------------------------------------------

 NO OUTPUT CONTROL FOR STRESS PERIOD   39   TIME STEP   16
 
 SOLVING FOR HEAD 
                                                   Max.-Head-Change                         Max.-Flux-Residual
  Residual-Control   Outer-Iter.   Inner-Iter.     Column Row Layer    Maximum-Head-Change  Column Row Layer    Maximum-Flux-Residual          L2-NORM 
          0                 1           2             3    7     1       0.1086064886E-01       4    7    1         0.5032942474E+00      0.1585215126E+01
          0                 2           2             4    7     1       0.1443126526E-02       4    7    1         0.7610186484E-01      0.1989295429E+00
          0                 3           2             4    7     1       0.2160158135E-03       4    7    1         0.1133551336E-01      0.2477190154E-01
          0                 4           1             4    7     1       0.3231448886E-04       4    7    1         0.1699970443E-02      0.3490663822E-02

    ------------------------------------------------
       NWT REQUIRED            4 OUTER ITERATIONS 
       AND A TOTAL OF          7 INNER ITERATIONS.
    ------------------------------------------------

 NO OUTPUT CONTROL FOR STRESS PERIOD   39   TIME STEP   17
 
 SOLVING FOR HEAD 
                                                   Max.-Head-Change                         Max.-Flux-Residual
  Residual-Control   Outer-Iter.   Inner-Iter.     Column Row Layer    Maximum-Head-Change  Column Row Layer    Maximum-Flux-Residual          L2-NORM 
          0                 1           2             3    7     1       0.1081518708E-01       4    7    1         0.4989589310E+00      0.1575884842E+01
          0                 2           2             4    7     1       0.1430809495E-02       4    7    1         0.7545206284E-01      0.1976123634E+00
          0                 3           2             4    7     1       0.2141788899E-03       4    7    1         0.1123882901E-01      0.2458402188E-01
          0                 4           1             4    7     1       0.3204064053E-04       4    7    1         0.1685538627E-02      0.3462853845E-02

    ------------------------------------------------
       NWT REQUIRED            4 OUTER ITERATIONS 
       AND A TOTAL OF          7 INNER ITERATIONS.
    ------------------------------------------------

 NO OUTPUT CONTROL FOR STRESS PERIOD   39   TIME STEP   18
 
 SOLVING FOR HEAD 
                                                   Max.-Head-Change                         Max.-Flux-Residual
  Residual-Control   Outer-Iter.   Inner-Iter.     Column Row Layer    Maximum-Head-Change  Column Row Layer    Maximum-Flux-Residual          L2-NORM 
          0                 1           2             3    7     1       0.1076953744E-01       4    7    1         0.4946835424E+00      0.1566663162E+01
          0                 2           2             4    7     1       0.1418661021E-02       4    7    1         0.7481115381E-01      0.1963112180E+00
          0                 3           2             4    7     1       0.2123670084E-03       4    7    1         0.1114346711E-01      0.2439850560E-01
          0                 4           1             4    7     1       0.3177051172E-04       4    7    1         0.1671303177E-02      0.3435393854E-02

    ------------------------------------------------
       NWT REQUIRED            4 OUTER ITERATIONS 
       AND A TOTAL OF          7 INNER ITERATIONS.
    ------------------------------------------------

 NO OUTPUT CONTROL FOR STRESS PERIOD   39   TIME STEP   19
 
 SOLVING FOR HEAD 
                                                   Max.-Head-Change                         Max.-Flux-Residual
  Residual-Control   Outer-Iter.   Inner-Iter.     Column Row Layer    Maximum-Head-Change  Column Row Layer    Maximum-Flux-Residual          L2-NORM 
          0                 1           2             3    7     1       0.1072395506E-01       4    7    1         0.4904666579E+00      0.1557554906E+01
          0                 2           2             4    7     1       0.1406677634E-02       4    7    1         0.7417895371E-01      0.1950267942E+00
          0                 3           2             4    7     1       0.2105796882E-03       4    7    1         0.1104940071E-01      0.2421546846E-01
          0                 4           1             4    7     1       0.3150403741E-04       4    7    1         0.1657260525E-02      0.3408304281E-02

    ------------------------------------------------
       NWT REQUIRED            4 OUTER ITERATIONS 
       AND A TOTAL OF          7 INNER ITERATIONS.
    ------------------------------------------------

 NO OUTPUT CONTROL FOR STRESS PERIOD   39   TIME STEP   20
 
 SOLVING FOR HEAD 
                                                   Max.-Head-Change                         Max.-Flux-Residual
  Residual-Control   Outer-Iter.   Inner-Iter.     Column Row Layer    Maximum-Head-Change  Column Row Layer    Maximum-Flux-Residual          L2-NORM 
          0                 1           2             3    7     1       0.1067820671E-01       4    7    1         0.4863143141E+00      0.1548561976E+01
          0                 2           2             4    7     1       0.1394877059E-02       4    7    1         0.7355637771E-01      0.1937594816E+00
          0                 3           2             4    7     1       0.2088196194E-03       4    7    1         0.1095677070E-01      0.2403497330E-01
          0                 4           1             4    7     1       0.3124162166E-04       4    7    1         0.1643431826E-02      0.3381591566E-02

    ------------------------------------------------
       NWT REQUIRED            4 OUTER ITERATIONS 
       AND A TOTAL OF          7 INNER ITERATIONS.
    ------------------------------------------------

 NO OUTPUT CONTROL FOR STRESS PERIOD   39   TIME STEP   21
 
 SOLVING FOR HEAD 
                                                   Max.-Head-Change                         Max.-Flux-Residual
  Residual-Control   Outer-Iter.   Inner-Iter.     Column Row Layer    Maximum-Head-Change  Column Row Layer    Maximum-Flux-Residual          L2-NORM 
          0                 1           2             3    7     1       0.1063254769E-01       4    7    1         0.4822179003E+00      0.1539677343E+01
          0                 2           2             4    7     1       0.1383234253E-02       4    7    1         0.7294212594E-01      0.1925083255E+00
          0                 3           2             4    7     1       0.2070830242E-03       4    7    1         0.1086537870E-01      0.2385688728E-01
          0                 4           1             4    7     1       0.3098269908E-04       4    7    1         0.1629787370E-02      0.3355239263E-02

    ------------------------------------------------
       NWT REQUIRED            4 OUTER ITERATIONS 
       AND A TOTAL OF          7 INNER ITERATIONS.
    ------------------------------------------------

 NO OUTPUT CONTROL FOR STRESS PERIOD   39   TIME STEP   22
 
 SOLVING FOR HEAD 
                                                   Max.-Head-Change                         Max.-Flux-Residual
  Residual-Control   Outer-Iter.   Inner-Iter.     Column Row Layer    Maximum-Head-Change  Column Row Layer    Maximum-Flux-Residual          L2-NORM 
          0                 1           2             3    7     1       0.1058674534E-01       4    7    1         0.4781835011E+00      0.1530899506E+01
          0                 2           2             4    7     1       0.1371764900E-02       4    7    1         0.7233704568E-01      0.1912728548E+00
          0                 3           2             4    7     1       0.2053721128E-03       4    7    1         0.1077534554E-01      0.2368110914E-01
          0                 4           1             4    7     1       0.3072757906E-04       4    7    1         0.1616344037E-02      0.3329230190E-02

    ------------------------------------------------
       NWT REQUIRED            4 OUTER ITERATIONS 
       AND A TOTAL OF          7 INNER ITERATIONS.
    ------------------------------------------------

 NO OUTPUT CONTROL FOR STRESS PERIOD   39   TIME STEP   23
 
 SOLVING FOR HEAD 
                                                   Max.-Head-Change                         Max.-Flux-Residual
  Residual-Control   Outer-Iter.   Inner-Iter.     Column Row Layer    Maximum-Head-Change  Column Row Layer    Maximum-Flux-Residual          L2-NORM 
          0                 1           2             3    7     1       0.1054081350E-01       4    7    1         0.4742094847E+00      0.1522228318E+01
          0                 2           2             4    7     1       0.1360464111E-02       4    7    1         0.7174088448E-01      0.1900529698E+00
          0                 3           2             4    7     1       0.2036861358E-03       4    7    1         0.1068663234E-01      0.2350760611E-01
          0                 4           1             4    7     1       0.3047614931E-04       4    7    1         0.1603095967E-02      0.3303558587E-02

    ------------------------------------------------
       NWT REQUIRED            4 OUTER ITERATIONS 
       AND A TOTAL OF          7 INNER ITERATIONS.
    ------------------------------------------------

 NO OUTPUT CONTROL FOR STRESS PERIOD   39   TIME STEP   24
 
 SOLVING FOR HEAD 
                                                   Max.-Head-Change                         Max.-Flux-Residual
  Residual-Control   Outer-Iter.   Inner-Iter.     Column Row Layer    Maximum-Head-Change  Column Row Layer    Maximum-Flux-Residual          L2-NORM 
          0                 1           2             3    7     1       0.1049476368E-01       4    7    1         0.4702869005E+00      0.1513661654E+01
          0                 2           2             4    7     1       0.1349311327E-02       4    7    1         0.7115247127E-01      0.1888490518E+00
          0                 3           2             4    7     1       0.2020224248E-03       4    7    1         0.1059908645E-01      0.2333656458E-01
          0                 4           1             4    7     1       0.3022806404E-04       4    7    1         0.1590023350E-02      0.3278256348E-02

    ------------------------------------------------
       NWT REQUIRED            4 OUTER ITERATIONS 
       AND A TOTAL OF          7 INNER ITERATIONS.
    ------------------------------------------------

 NO OUTPUT CONTROL FOR STRESS PERIOD   39   TIME STEP   25
 
 SOLVING FOR HEAD 
                                                   Max.-Head-Change                         Max.-Flux-Residual
  Residual-Control   Outer-Iter.   Inner-Iter.     Column Row Layer    Maximum-Head-Change  Column Row Layer    Maximum-Flux-Residual          L2-NORM 
          0                 1           2             3    7     1       0.1044884897E-01       4    7    1         0.4664151029E+00      0.1505194473E+01
          0                 2           2             4    7     1       0.1338301861E-02       4    7    1         0.7057162232E-01      0.1876593967E+00
          0                 3           2             4    7     1       0.2003800253E-03       4    7    1         0.1051266492E-01      0.2316756608E-01
          0                 4           1             4    7     1       0.2998314730E-04       4    7    1         0.1577117936E-02      0.3253256428E-02

    ------------------------------------------------
       NWT REQUIRED            4 OUTER ITERATIONS 
       AND A TOTAL OF          7 INNER ITERATIONS.
    ------------------------------------------------

 NO OUTPUT CONTROL FOR STRESS PERIOD   39   TIME STEP   26
 
 SOLVING FOR HEAD 
                                                   Max.-Head-Change                         Max.-Flux-Residual
  Residual-Control   Outer-Iter.   Inner-Iter.     Column Row Layer    Maximum-Head-Change  Column Row Layer    Maximum-Flux-Residual          L2-NORM 
          0                 1           2             3    7     1       0.1040283566E-01       4    7    1         0.4626003104E+00      0.1496832484E+01
          0                 2           2             4    7     1       0.1327452773E-02       4    7    1         0.6999923657E-01      0.1864853684E+00
          0                 3           2             4    7     1       0.1987614560E-03       4    7    1         0.1042750156E-01      0.2300087968E-01
          0                 4           1             4    7     1       0.2974177114E-04       4    7    1         0.1564399431E-02      0.3228598541E-02

    ------------------------------------------------
       NWT REQUIRED            4 OUTER ITERATIONS 
       AND A TOTAL OF          7 INNER ITERATIONS.
    ------------------------------------------------

 NO OUTPUT CONTROL FOR STRESS PERIOD   39   TIME STEP   27
 
 SOLVING FOR HEAD 
                                                   Max.-Head-Change                         Max.-Flux-Residual
  Residual-Control   Outer-Iter.   Inner-Iter.     Column Row Layer    Maximum-Head-Change  Column Row Layer    Maximum-Flux-Residual          L2-NORM 
          0                 1           2             3    7     1       0.1035673385E-01       4    7    1         0.4588411847E+00      0.1488562211E+01
          0                 2           2             4    7     1       0.1316759441E-02       4    7    1         0.6943508655E-01      0.1853252662E+00
          0                 3           2             4    7     1       0.1971659565E-03       4    7    1         0.1034355844E-01      0.2283631966E-01
          0                 4           1             4    7     1       0.2950381224E-04       4    7    1         0.1551861636E-02      0.3204261598E-02

    ------------------------------------------------
       NWT REQUIRED            4 OUTER ITERATIONS 
       AND A TOTAL OF          7 INNER ITERATIONS.
    ------------------------------------------------

 NO OUTPUT CONTROL FOR STRESS PERIOD   39   TIME STEP   28
 
 SOLVING FOR HEAD 
                                                   Max.-Head-Change                         Max.-Flux-Residual
  Residual-Control   Outer-Iter.   Inner-Iter.     Column Row Layer    Maximum-Head-Change  Column Row Layer    Maximum-Flux-Residual          L2-NORM 
          0                 1           2             3    7     1       0.1031079739E-01       4    7    1         0.4551289678E+00      0.1480396616E+01
          0                 2           2             4    7     1       0.1306199425E-02       4    7    1         0.6887795653E-01      0.1841798410E+00
          0                 3           2             4    7     1       0.1955903606E-03       4    7    1         0.1026066291E-01      0.2267379227E-01
          0                 4           1             4    7     1       0.2926882366E-04       4    7    1         0.1539480271E-02      0.3180217098E-02

    ------------------------------------------------
       NWT REQUIRED            4 OUTER ITERATIONS 
       AND A TOTAL OF          7 INNER ITERATIONS.
    ------------------------------------------------

 NO OUTPUT CONTROL FOR STRESS PERIOD   39   TIME STEP   29
 
 SOLVING FOR HEAD 
                                                   Max.-Head-Change                         Max.-Flux-Residual
  Residual-Control   Outer-Iter.   Inner-Iter.     Column Row Layer    Maximum-Head-Change  Column Row Layer    Maximum-Flux-Residual          L2-NORM 
          0                 1           2             3    7     1       0.1026478936E-01       4    7    1         0.4514701264E+00      0.1509963993E+01
          0                 2           2             4    7     1       0.1295828705E-02       4    7    1         0.6833006475E-01      0.1860146817E+00
          0                 3           2             4    7     1       0.1940463426E-03       4    7    1         0.1017932750E-01      0.2262725671E-01
          0                 4           1             4    7     1       0.2903901725E-04       4    7    1         0.1527357262E-02      0.3158875852E-02

    ------------------------------------------------
       NWT REQUIRED            4 OUTER ITERATIONS 
       AND A TOTAL OF          7 INNER ITERATIONS.
    ------------------------------------------------

 NO OUTPUT CONTROL FOR STRESS PERIOD   39   TIME STEP   30



 STREAM LISTING     PERIOD     39   STEP       30

 LAYER ROW COL. STREAM  RCH.  FLOW INTO     FLOW TO   FLOW OUT OF   OVRLND.     DIRECT     STREAM       STREAM     STREAM     STREAM   STREAMBED  STREAMBED
                SEG.NO.  NO.  STRM. RCH.    AQUIFER    STRM. RCH.    RUNOFF     PRECIP       ET          HEAD       DEPTH      WIDTH   CONDCTNC.   GRADIENT

   1    1    1     1     1    1.6375E+01  1.9673E-01   1.6178E+01  0.000E+00  0.000E+00  0.000E+00  1.09408E+03  1.036E+00  1.083E+01  4.874E-02  1.345E+00
   1    2    2     1     2    1.6178E+01  3.0333E-01   1.5875E+01  0.000E+00  0.000E+00  0.000E+00  1.08909E+03  1.032E+00  1.075E+01  7.524E-02  1.344E+00
   1    3    3     1     3    1.5875E+01  2.5739E-01   1.5618E+01  0.000E+00  0.000E+00  0.000E+00  1.08345E+03  1.026E+00  1.065E+01  6.392E-02  1.342E+00
   1    3    4     1     4    1.5618E+01  2.3595E-01   1.5382E+01  0.000E+00  0.000E+00  0.000E+00  1.07843E+03  1.022E+00  1.057E+01  5.867E-02  1.341E+00
   1    4    5     2     1    1.3382E+01  2.9830E-01   1.3084E+01  0.000E+00  0.000E+00  0.000E+00  1.07276E+03  8.244E-01  1.200E+01  7.800E-02  1.275E+00
   1    5    6     2     2    1.3084E+01  2.2887E-01   1.2855E+01  0.000E+00  0.000E+00  0.000E+00  1.06732E+03  8.145E-01  1.200E+01  6.000E-02  1.271E+00
   1    6    6     2     3    1.2855E+01  2.2835E-01   1.2626E+01  0.000E+00  0.000E+00  0.000E+00  1.06260E+03  8.059E-01  1.200E+01  6.000E-02  1.269E+00
   1    7    6     2     4    1.2626E+01  2.2783E-01   1.2398E+01  0.000E+00  0.000E+00  0.000E+00  1.05787E+03  7.972E-01  1.200E+01  6.000E-02  1.266E+00
   1    8    6     2     5    1.2398E+01  2.2731E-01   1.2171E+01  0.000E+00  0.000E+00  0.000E+00  1.05315E+03  7.884E-01  1.200E+01  6.000E-02  1.263E+00
   1    3    5     3     1    2.0000E+00  2.8252E-01   1.7175E+00  0.000E+00  0.000E+00  0.000E+00  1.07555E+03  1.909E+00  9.636E+00  7.227E-02  1.955E+00
   1    3    6     3     2    1.7175E+00  2.4905E-01   1.4684E+00  0.000E+00  0.000E+00  0.000E+00  1.07264E+03  1.727E+00  8.909E+00  6.682E-02  1.864E+00
   1    3    7     3     3    1.4684E+00  1.9718E-01   1.2712E+00  0.000E+00  0.000E+00  0.000E+00  1.06987E+03  1.555E+00  8.218E+00  5.547E-02  1.777E+00
   1    4    8     3     4    1.2712E+00  2.2567E-01   1.0456E+00  0.000E+00  0.000E+00  0.000E+00  1.06682E+03  1.364E+00  7.455E+00  6.709E-02  1.682E+00
   1    5    8     3     5    1.0456E+00  1.5790E-01   8.8768E-01  0.000E+00  0.000E+00  0.000E+00  1.06362E+03  1.164E+00  6.655E+00  4.991E-02  1.582E+00
   1    6    8     3     6    8.8768E-01  5.5980E-02   8.3170E-01  0.000E+00  0.000E+00  0.000E+00  1.06158E+03  1.036E+00  6.145E+00  1.844E-02  1.518E+00
   1    5   10     4     1    1.0000E+01  9.0919E-02   9.9091E+00  0.000E+00  0.000E+00  0.000E+00  1.07836E+03  6.368E-01  1.000E+01  2.500E-02  1.212E+00
   1    5    9     4     2    9.9091E+00  1.8158E-01   9.7275E+00  0.000E+00  0.000E+00  0.000E+00  1.07154E+03  6.315E-01  1.000E+01  5.000E-02  1.211E+00
   1    6    8     4     3    9.7275E+00  1.2689E-01   9.6006E+00  0.000E+00  0.000E+00  0.000E+00  1.06381E+03  6.256E-01  1.000E+01  3.500E-02  1.209E+00
   1    6    8     5     1    1.0432E+01  2.2686E-01   1.0205E+01  0.000E+00  0.000E+00  0.000E+00  1.05868E+03  6.790E-01  1.542E+01  6.166E-02  1.226E+00
   1    7    7     5     2    1.0205E+01  2.7894E-01   9.9265E+00  0.000E+00  0.000E+00  0.000E+00  1.05417E+03  6.732E-01  1.519E+01  7.594E-02  1.224E+00
   1    8    7     5     3    9.9265E+00  1.9221E-01   9.7343E+00  0.000E+00  0.000E+00  0.000E+00  1.04992E+03  6.676E-01  1.497E+01  5.241E-02  1.223E+00
   1    8    6     5     4    9.7343E+00  1.3577E-01   9.5985E+00  0.000E+00  0.000E+00  0.000E+00  1.04691E+03  6.637E-01  1.482E+01  3.706E-02  1.221E+00
   1    9    6     6     1    2.1770E+01  2.4720E-01   2.1522E+01  0.000E+00  0.000E+00  0.000E+00  1.04385E+03  1.120E+00  1.200E+01  6.000E-02  1.373E+00
   1   10    7     6     2    2.1522E+01  2.4674E-01   2.1276E+01  0.000E+00  0.000E+00  0.000E+00  1.03929E+03  1.112E+00  1.200E+01  6.000E-02  1.371E+00
   1   11    7     6     3    2.1276E+01  2.4627E-01   2.1029E+01  0.000E+00  0.000E+00  0.000E+00  1.03474E+03  1.105E+00  1.200E+01  6.000E-02  1.368E+00
   1   12    7     6     4    2.1029E+01  2.4581E-01   2.0784E+01  0.000E+00  0.000E+00  0.000E+00  1.03019E+03  1.097E+00  1.200E+01  6.000E-02  1.366E+00
   1   13    7     6     5    2.0784E+01  1.3283E-02   2.0770E+01  0.000E+00  0.000E+00  0.000E+00  1.02700E+03  1.093E+00  1.200E+01  2.400E-02  1.845E-01
   1   14    9     7     1    1.5000E+02  1.4004E+00   1.4860E+02  0.000E+00  0.000E+00  0.000E+00  1.03987E+03  2.288E+00  5.529E+01  5.593E-01  8.347E-01
   1   13    8     7     2    1.4860E+02  2.0356E+00   1.4656E+02  0.000E+00  0.000E+00  0.000E+00  1.03478E+03  2.278E+00  5.525E+01  6.147E-01  1.104E+00
   1   13    7     7     3    1.4656E+02  1.8085E+00   1.4476E+02  0.000E+00  0.000E+00  0.000E+00  1.02969E+03  2.268E+00  5.521E+01  5.583E-01  1.080E+00
   1   13    6     8     1    1.6553E+02  1.2272E+00   1.6430E+02  0.000E+00  0.000E+00  0.000E+00  1.02479E+03  2.919E+00  4.232E+01  4.313E-01  9.485E-01
   1   13    5     8     2    1.6430E+02  4.5897E-01   1.6384E+02  0.000E+00  0.000E+00  0.000E+00  1.01854E+03  2.913E+00  4.224E+01  4.304E-01  3.554E-01
   1   13    4     8     3    1.6384E+02 -1.3727E+00   1.6521E+02  0.000E+00  0.000E+00  0.000E+00  1.01229E+03  2.916E+00  4.228E+01  4.309E+00 -1.062E-01
   1   13    3     8     4    1.6521E+02 -3.0598E+00   1.6827E+02  0.000E+00  0.000E+00  0.000E+00  1.00606E+03  2.931E+00  4.250E+01  4.331E+00 -2.355E-01
   1   13    2     8     5    1.6827E+02 -2.3091E+00   1.7058E+02  0.000E+00  0.000E+00  0.000E+00  9.99823E+02  2.948E+00  4.275E+01  4.357E+00 -1.767E-01
   1   13    1     8     6    1.7058E+02 -1.8620E+00   1.7244E+02  0.000E+00  0.000E+00  0.000E+00  9.94837E+02  2.962E+00  4.295E+01  2.626E+00 -2.364E-01
   1    8    6     9     1    0.0000E+00  0.0000E+00   0.0000E+00  0.000E+00  0.000E+00  0.000E+00  1.07875E+03  0.000E+00  4.000E+00  0.000E+00  1.000E+00
   1    8    5     9     2    0.0000E+00  0.0000E+00   0.0000E+00  0.000E+00  0.000E+00  0.000E+00  1.07825E+03  0.000E+00  4.000E+00  0.000E+00  1.000E+00





UNSATURATED ZONE PACKAGE VOLUMETRIC BUDGET FOR  TIME STEP    30 STRESS PERIOD   39
  ------------------------------------------------------------------------------



     CUMULATIVE VOLUMES      L**3       RATES FOR THIS TIME STEP      L**3/T
     ------------------                 ------------------------

           IN:                                      IN:
           ---                                      ---
        INFILTRATION =  1757186588.3496          INFILTRATION =           0.8475

          OUT:                                     OUT:
          ----                                     ----
              UZF ET =  1288895320.0190                UZF ET =           0.7500
        UZF RECHARGE =    82765535.5452          UZF RECHARGE =           0.9344

            IN - OUT =   385525732.7855              IN - OUT =          -0.8369

          STORAGE:                                 STORAGE:
          --------                                 --------
      STORAGE CHANGE =   385530299.7058        STORAGE CHANGE =          -0.8369

 PERCENT DISCREPANCY IS DIFFERENCE BETWEEN IN-OUT MINUS CHANGE IN STORAGE
 DIVIDED BY THE AVERAGE OF IN AND OUT TIMES 100

 PERCENT DISCREPANCY =          -0.00     PERCENT DISCREPANCY =           0.00






1
  VOLUMETRIC BUDGET FOR AGRICULTURAL FIELDS AT  END OF TIME STEP   30, STRESS PERIOD  39
  ------------------------------------------------------------------------------

     CUMULATIVE VOLUMES      L**3       RATES FOR THIS TIME STEP      L**3/T
     ------------------                 ------------------------

           IN:                                      IN:
           ---                                      ---
               AG WELLS  =  1101049344.0000                 AG WELLS  =           0.0000
      DIVERSION SEGMENTS =   571557568.0000        DIVERSION SEGMENTS =           0.0000
       IRRIGATION PONDS  =           0.0000         IRRIGATION PONDS  =           0.0000
           GW IRRIGATION =           0.0000             GW IRRIGATION =           0.0000
           SW IRRIGATION =           0.0000             SW IRRIGATION =           0.0000
        SYSTEM LOSSES GW =           0.0000          SYSTEM LOSSES GW =           0.0000
        SYSTEM LOSSES SW =           0.0000          SYSTEM LOSSES SW =           0.0000

                TOTAL IN =  1672606976.0000                  TOTAL IN =           0.0000

          OUT:                                     OUT:
          ----                                     ----
               AG WELLS  =           0.0000                 AG WELLS  =           0.0000
      DIVERSION SEGMENTS =           0.0000        DIVERSION SEGMENTS =           0.0000
       IRRIGATION PONDS  =           0.0000         IRRIGATION PONDS  =           0.0000
           GW IRRIGATION =  1101049344.0000             GW IRRIGATION =           0.0000
           SW IRRIGATION =   571569024.0000             SW IRRIGATION =           0.0000
        SYSTEM LOSSES GW =           0.0000          SYSTEM LOSSES GW =           0.0000
        SYSTEM LOSSES SW =           0.0000          SYSTEM LOSSES SW =           0.0000

               TOTAL OUT =  1672618368.0000                 TOTAL OUT =           0.0000

                IN - OUT =      -11392.0000                  IN - OUT =           0.0000

     PERCENT DISCREPANCY =          -0.00         PERCENT DISCREPANCY =           0.00



1
  VOLUMETRIC BUDGET FOR ENTIRE MODEL AT END OF TIME STEP   30, STRESS PERIOD  39
  ------------------------------------------------------------------------------

     CUMULATIVE VOLUMES      L**3       RATES FOR THIS TIME STEP      L**3/T
     ------------------                 ------------------------

           IN:                                      IN:
           ---                                      ---
             STORAGE     =  1702924672.0000               STORAGE     =           3.1851
       CONSTANT HEAD     =           0.0000         CONSTANT HEAD     =           0.0000
     HEAD DEP BOUNDS     =    28873466.0000       HEAD DEP BOUNDS     =           0.2902
      STREAM LEAKAGE     =  1196143360.0000        STREAM LEAKAGE     =          12.5356
        UZF RECHARGE     =    82765552.0000          UZF RECHARGE     =           0.9344
               GW ET     =           0.0000                 GW ET     =           0.0000
     SURFACE LEAKAGE     =           0.0000       SURFACE LEAKAGE     =           0.0000
           AG WELLS      =           0.0000             AG WELLS      =           0.0000

                TOTAL IN =  3010707200.0000                  TOTAL IN =          16.9452

          OUT:                                     OUT:
          ----                                     ----
             STORAGE     =   897596736.0000               STORAGE     =           8.0537
       CONSTANT HEAD     =           0.0000         CONSTANT HEAD     =           0.0000
     HEAD DEP BOUNDS     =    28778490.0000       HEAD DEP BOUNDS     =           0.2868
      STREAM LEAKAGE     =   983256064.0000        STREAM LEAKAGE     =           8.6036
        UZF RECHARGE     =           0.0000          UZF RECHARGE     =           0.0000
               GW ET     =           0.0000                 GW ET     =           0.0000
     SURFACE LEAKAGE     =           0.0000       SURFACE LEAKAGE     =           0.0000
           AG WELLS      =  1101049344.0000             AG WELLS      =           0.0000

               TOTAL OUT =  3010680576.0000                 TOTAL OUT =          16.9441

                IN - OUT =       26624.0000                  IN - OUT =       1.1520E-03

     PERCENT DISCREPANCY =           0.00         PERCENT DISCREPANCY =           0.01






         TIME SUMMARY AT END OF TIME STEP   30 IN STRESS PERIOD   39
                    SECONDS     MINUTES      HOURS       DAYS        YEARS
                    -----------------------------------------------------------
   TIME STEP LENGTH  87667.      1461.1      24.352      1.0147     2.77799E-03
 STRESS PERIOD TIME 2.63000E+06  43833.      730.56      30.440     8.33397E-02
         TOTAL TIME 1.00026E+08 1.66710E+06  27785.      1157.7      3.1696    
1
1
                            STRESS PERIOD NO.   40, LENGTH =   2630000.    
                            -----------------------------------------------

                              NUMBER OF TIME STEPS =    30

                               MULTIPLIER FOR DELT =     1.000

                            INITIAL TIME STEP SIZE =   87666.66    

 REUSING NON-PARAMETER GHB CELLS FROM LAST STRESS PERIOD

      2 GHB CELLS

 REUSING STREAM SEGMENT DATA FROM LAST STRESS PERIOD



            AREAL INFILTRATION RATE
 READING ON UNIT   19 WITH FORMAT: (FREE)              

            1           2           3           4           5           6           7           8           9          10
 ........................................................................................................................
   1   1.0000E-10  2.0000E-10   0.000       0.000       0.000       0.000       0.000       0.000       0.000       0.000    
   2   2.0000E-10  1.0000E-10  2.0000E-10   0.000       0.000      8.0000E-10  8.0000E-10  5.0000E-10   0.000       0.000    
   3    0.000      5.0000E-10  1.0000E-10  1.0000E-10  8.0000E-10  8.0000E-10  5.0000E-10  5.0000E-10   0.000       0.000    
   4   8.0000E-10  5.0000E-10  1.0000E-10  1.0000E-10  1.0000E-10  1.0000E-10  1.0000E-10  1.0000E-10  2.0000E-10   0.000    
   5   8.0000E-10  5.0000E-10  1.0000E-10  1.0000E-10  1.0000E-10  1.0000E-10  1.0000E-10  1.0000E-10  1.0000E-10  1.0000E-10
   6   8.0000E-10  5.0000E-10  5.0000E-10  2.0000E-10  2.0000E-10  1.0000E-10  1.0000E-10  1.0000E-10  1.0000E-10  5.0000E-10
   7   8.0000E-10  5.0000E-10  5.0000E-10  2.0000E-10  2.0000E-10  1.0000E-10  1.0000E-10  2.0000E-10  2.0000E-10   0.000    
   8    0.000      5.0000E-10  5.0000E-10  2.0000E-10  2.0000E-10  1.0000E-10  1.0000E-10  2.0000E-10  5.0000E-10   0.000    
   9    0.000      5.0000E-10  5.0000E-10  2.0000E-10  2.0000E-10  1.0000E-10  1.0000E-10  2.0000E-10  5.0000E-10   0.000    
  10    0.000      5.0000E-10  5.0000E-10  2.0000E-10  2.0000E-10  1.0000E-10  1.0000E-10  2.0000E-10  5.0000E-10  8.0000E-10
  11    0.000      1.0000E-10  1.0000E-10  1.0000E-10  1.0000E-10  1.0000E-10  1.0000E-10  2.0000E-10  5.0000E-10   0.000    
  12   1.0000E-10  1.0000E-10  1.0000E-10  1.0000E-10  1.0000E-10  1.0000E-10  1.0000E-10  1.0000E-10  2.0000E-10   0.000    
  13   1.0000E-10  1.0000E-10  2.0000E-10  2.0000E-10  2.0000E-10  2.0000E-10  2.0000E-10  1.0000E-10  1.0000E-10   0.000    
  14    0.000      2.0000E-10  5.0000E-10  5.0000E-10  5.0000E-10  5.0000E-10  5.0000E-10  2.0000E-10  1.0000E-10   0.000    
  15    0.000       0.000      8.0000E-10  8.0000E-10  8.0000E-10  8.0000E-10   0.000       0.000       0.000       0.000    

                  ET RATE =  5.000000E-10

 USING ET EXTINCTION DEPTH FROM PREVIOUS STRESS PERIOD. CURRENT PERIOD IS:      40

 USING EXTINCTION WATER CONTENT FROM PREVIOUS STRESS PERIOD. CURRENT PERIOD IS:      40

 USING AIR ENTRY PRESSURE FROM PREVIOUS STRESS PERIOD. CURRENT PERIOD IS:      40

 USING ROOT PRESSURE HEAD FROM PREVIOUS STRESS PERIOD. CURRENT PERIOD IS:      40

 USING ROOT ACTIVITY FROM PREVIOUS STRESS PERIOD. CURRENT PERIOD IS:      40

 PROCESSING AG STRESS PERIOD DATA

 READING AG STRESS PERIOD DATA

 READING IRRIGATION SEGMENT

 READING IRRIGATION WELL

 READING SUPPLEMENTAL WELL

 NO IRRPOND OR REUSING IRRPOND DATA FROM LAST STRESS PERIOD

 END PROCESSING AG STRESS PERIOD DATA OPTIONS
 
 SOLVING FOR HEAD 
                                                   Max.-Head-Change                         Max.-Flux-Residual
  Residual-Control   Outer-Iter.   Inner-Iter.     Column Row Layer    Maximum-Head-Change  Column Row Layer    Maximum-Flux-Residual          L2-NORM 
          0                 1           2             4   13     1       0.1157071391E-01       4   13    1         0.6651202315E+00      0.1882979823E+01
          0                 2           2             4    7     1       0.1285662106E-02       4    7    1         0.6779179865E-01      0.2155586786E+00
          0                 3           2             4    7     1       0.1925379402E-03       4    7    1         0.1009970807E-01      0.2368992186E-01
          0                 4           1             4    7     1       0.2881525816E-04       4    7    1         0.1515530048E-02      0.3151748866E-02

    ------------------------------------------------
       NWT REQUIRED            4 OUTER ITERATIONS 
       AND A TOTAL OF          7 INNER ITERATIONS.
    ------------------------------------------------

 NO OUTPUT CONTROL FOR STRESS PERIOD   40   TIME STEP    1
 
 SOLVING FOR HEAD 
                                                   Max.-Head-Change                         Max.-Flux-Residual
  Residual-Control   Outer-Iter.   Inner-Iter.     Column Row Layer    Maximum-Head-Change  Column Row Layer    Maximum-Flux-Residual          L2-NORM 
          0                 1           2             4   13     1       0.1046853387E-01       4   13    1         0.6014570442E+00      0.1825354660E+01
          0                 2           2             4    7     1       0.1275698173E-02       4    7    1         0.6726438559E-01      0.2104527605E+00
          0                 3           2             4    7     1       0.1910589317E-03       4    7    1         0.1002166280E-01      0.2338657065E-01
          0                 4           1             4    7     1       0.2859576371E-04       4    7    1         0.1503931132E-02      0.3129597672E-02

    ------------------------------------------------
       NWT REQUIRED            4 OUTER ITERATIONS 
       AND A TOTAL OF          7 INNER ITERATIONS.
    ------------------------------------------------

 NO OUTPUT CONTROL FOR STRESS PERIOD   40   TIME STEP    2
 
 SOLVING FOR HEAD 
                                                   Max.-Head-Change                         Max.-Flux-Residual
  Residual-Control   Outer-Iter.   Inner-Iter.     Column Row Layer    Maximum-Head-Change  Column Row Layer    Maximum-Flux-Residual          L2-NORM 
          0                 1           2             3    7     1       0.1012671895E-01       4   13    1         0.5441636390E+00      0.1774560913E+01
          0                 2           2             4    7     1       0.1265890835E-02       4    7    1         0.6674533161E-01      0.2059307013E+00
          0                 3           2             4    7     1       0.1896027814E-03       4    7    1         0.9944836685E-02      0.2310782991E-01
          0                 4           1             4    7     1       0.2837960549E-04       4    7    1         0.1492510247E-02      0.3108060747E-02

    ------------------------------------------------
       NWT REQUIRED            4 OUTER ITERATIONS 
       AND A TOTAL OF          7 INNER ITERATIONS.
    ------------------------------------------------

 NO OUTPUT CONTROL FOR STRESS PERIOD   40   TIME STEP    3
 
 SOLVING FOR HEAD 
                                                   Max.-Head-Change                         Max.-Flux-Residual
  Residual-Control   Outer-Iter.   Inner-Iter.     Column Row Layer    Maximum-Head-Change  Column Row Layer    Maximum-Flux-Residual          L2-NORM 
          0                 1           2             3    7     1       0.1008103853E-01       4   13    1         0.4925875132E+00      0.1729727801E+01
          0                 2           2             4    7     1       0.1256233890E-02       4    7    1         0.6623431985E-01      0.2019150787E+00
          0                 3           2             4    7     1       0.1881685205E-03       4    7    1         0.9869180031E-02      0.2285148622E-01
          0                 4           1             4    7     1       0.2816663256E-04       4    7    1         0.1481259613E-02      0.3086798586E-02

    ------------------------------------------------
       NWT REQUIRED            4 OUTER ITERATIONS 
       AND A TOTAL OF          7 INNER ITERATIONS.
    ------------------------------------------------

 NO OUTPUT CONTROL FOR STRESS PERIOD   40   TIME STEP    4
 
 SOLVING FOR HEAD 
                                                   Max.-Head-Change                         Max.-Flux-Residual
  Residual-Control   Outer-Iter.   Inner-Iter.     Column Row Layer    Maximum-Head-Change  Column Row Layer    Maximum-Flux-Residual          L2-NORM 
          0                 1           2             3    7     1       0.1003509916E-01       4   13    1         0.4461462773E+00      0.1690095161E+01
          0                 2           2             4    7     1       0.1246760608E-02       4    7    1         0.6573312631E-01      0.1983366045E+00
          0                 3           2             4    7     1       0.1867609516E-03       4    7    1         0.9794951472E-02      0.2261476269E-01
          0                 4           1             4    7     1       0.2795754086E-04       4    7    1         0.1470216469E-02      0.3066145560E-02

    ------------------------------------------------
       NWT REQUIRED            4 OUTER ITERATIONS 
       AND A TOTAL OF          7 INNER ITERATIONS.
    ------------------------------------------------

 NO OUTPUT CONTROL FOR STRESS PERIOD   40   TIME STEP    5
 
 SOLVING FOR HEAD 
                                                   Max.-Head-Change                         Max.-Flux-Residual
  Residual-Control   Outer-Iter.   Inner-Iter.     Column Row Layer    Maximum-Head-Change  Column Row Layer    Maximum-Flux-Residual          L2-NORM 
          0                 1           2             3    7     1       0.9989399431E-02       4    7    1         0.4307799677E+00      0.1654976576E+01
          0                 2           2             4    7     1       0.1237425771E-02       4    7    1         0.6523931407E-01      0.1951356100E+00
          0                 3           2             4    7     1       0.1853736380E-03       4    7    1         0.9721801703E-02      0.2239418141E-01
          0                 4           1             4    7     1       0.2775141234E-04       4    7    1         0.1459331231E-02      0.3045672734E-02

    ------------------------------------------------
       NWT REQUIRED            4 OUTER ITERATIONS 
       AND A TOTAL OF          7 INNER ITERATIONS.
    ------------------------------------------------

 NO OUTPUT CONTROL FOR STRESS PERIOD   40   TIME STEP    6
 
 SOLVING FOR HEAD 
                                                   Max.-Head-Change                         Max.-Flux-Residual
  Residual-Control   Outer-Iter.   Inner-Iter.     Column Row Layer    Maximum-Head-Change  Column Row Layer    Maximum-Flux-Residual          L2-NORM 
          0                 1           2             3    7     1       0.9943703299E-02       4    7    1         0.4275337787E+00      0.1623779007E+01
          0                 2           2             4    7     1       0.1228245191E-02       4    7    1         0.6475371075E-01      0.1922595829E+00
          0                 3           2             4    7     1       0.1840089301E-03       4    7    1         0.9649855287E-02      0.2218781546E-01
          0                 4           1             4    7     1       0.2754859504E-04       4    7    1         0.1448622294E-02      0.3025518468E-02

    ------------------------------------------------
       NWT REQUIRED            4 OUTER ITERATIONS 
       AND A TOTAL OF          7 INNER ITERATIONS.
    ------------------------------------------------

 NO OUTPUT CONTROL FOR STRESS PERIOD   40   TIME STEP    7
 
 SOLVING FOR HEAD 
                                                   Max.-Head-Change                         Max.-Flux-Residual
  Residual-Control   Outer-Iter.   Inner-Iter.     Column Row Layer    Maximum-Head-Change  Column Row Layer    Maximum-Flux-Residual          L2-NORM 
          0                 1           2             3    7     1       0.9898021510E-02       4    7    1         0.4243417257E+00      0.1595974815E+01
          0                 2           2             4    7     1       0.1219210107E-02       4    7    1         0.6427591888E-01      0.1896626923E+00
          0                 3           2             4    7     1       0.1826652454E-03       4    7    1         0.9579036977E-02      0.2199337205E-01
          0                 4           1             4    7     1       0.2734881810E-04       4    7    1         0.1438076429E-02      0.3005770821E-02

    ------------------------------------------------
       NWT REQUIRED            4 OUTER ITERATIONS 
       AND A TOTAL OF          7 INNER ITERATIONS.
    ------------------------------------------------

 NO OUTPUT CONTROL FOR STRESS PERIOD   40   TIME STEP    8
 
 SOLVING FOR HEAD 
                                                   Max.-Head-Change                         Max.-Flux-Residual
  Residual-Control   Outer-Iter.   Inner-Iter.     Column Row Layer    Maximum-Head-Change  Column Row Layer    Maximum-Flux-Residual          L2-NORM 
          0                 1           2             3    7     1       0.9852602260E-02       4    7    1         0.4211940876E+00      0.1571107466E+01
          0                 2           2             4    7     1       0.1210299415E-02       4    7    1         0.6380471879E-01      0.1873063715E+00
          0                 3           2             4    7     1       0.1813399454E-03       4    7    1         0.9509192071E-02      0.2180956594E-01
          0                 4           1             4    7     1       0.2715175598E-04       4    7    1         0.1427674428E-02      0.2986137856E-02

    ------------------------------------------------
       NWT REQUIRED            4 OUTER ITERATIONS 
       AND A TOTAL OF          7 INNER ITERATIONS.
    ------------------------------------------------

 NO OUTPUT CONTROL FOR STRESS PERIOD   40   TIME STEP    9
 
 SOLVING FOR HEAD 
                                                   Max.-Head-Change                         Max.-Flux-Residual
  Residual-Control   Outer-Iter.   Inner-Iter.     Column Row Layer    Maximum-Head-Change  Column Row Layer    Maximum-Flux-Residual          L2-NORM 
          0                 1           2             3    7     1       0.9807209603E-02       4    7    1         0.4181043959E+00      0.1548781667E+01
          0                 2           2             4    7     1       0.1201546094E-02       4    7    1         0.6334193640E-01      0.1851621448E+00
          0                 3           2             4    7     1       0.1800375234E-03       4    7    1         0.9440570443E-02      0.2163486694E-01
          0                 4           1             4    7     1       0.2695802184E-04       4    7    1         0.1417450351E-02      0.2966832765E-02

    ------------------------------------------------
       NWT REQUIRED            4 OUTER ITERATIONS 
       AND A TOTAL OF          7 INNER ITERATIONS.
    ------------------------------------------------

 NO OUTPUT CONTROL FOR STRESS PERIOD   40   TIME STEP   10
 
 SOLVING FOR HEAD 
                                                   Max.-Head-Change                         Max.-Flux-Residual
  Residual-Control   Outer-Iter.   Inner-Iter.     Column Row Layer    Maximum-Head-Change  Column Row Layer    Maximum-Flux-Residual          L2-NORM 
          0                 1           2             3    7     1       0.9762093090E-02       4    7    1         0.4150557321E+00      0.1528646168E+01
          0                 2           2             4    7     1       0.1192907466E-02       4    7    1         0.6288523739E-01      0.1831882296E+00
          0                 3           2             4    7     1       0.1787520311E-03       4    7    1         0.9372845798E-02      0.2146787990E-01
          0                 4           1             4    7     1       0.2676678456E-04       4    7    1         0.1407358678E-02      0.2947855819E-02

    ------------------------------------------------
       NWT REQUIRED            4 OUTER ITERATIONS 
       AND A TOTAL OF          7 INNER ITERATIONS.
    ------------------------------------------------

 NO OUTPUT CONTROL FOR STRESS PERIOD   40   TIME STEP   11
 
 SOLVING FOR HEAD 
                                                   Max.-Head-Change                         Max.-Flux-Residual
  Residual-Control   Outer-Iter.   Inner-Iter.     Column Row Layer    Maximum-Head-Change  Column Row Layer    Maximum-Flux-Residual          L2-NORM 
          0                 1           2             3    7     1       0.9716771577E-02       4    7    1         0.4120616795E+00      0.1510400239E+01
          0                 2           2             4    7     1       0.1184417010E-02       4    7    1         0.6243645729E-01      0.1813723286E+00
          0                 3           2             4    7     1       0.1774880868E-03       4    7    1         0.9306273462E-02      0.2130788484E-01
          0                 4           1             4    7     1       0.2657868293E-04       4    7    1         0.1397434577E-02      0.2929073976E-02

    ------------------------------------------------
       NWT REQUIRED            4 OUTER ITERATIONS 
       AND A TOTAL OF          7 INNER ITERATIONS.
    ------------------------------------------------

 NO OUTPUT CONTROL FOR STRESS PERIOD   40   TIME STEP   12
 
 SOLVING FOR HEAD 
                                                   Max.-Head-Change                         Max.-Flux-Residual
  Residual-Control   Outer-Iter.   Inner-Iter.     Column Row Layer    Maximum-Head-Change  Column Row Layer    Maximum-Flux-Residual          L2-NORM 
          0                 1           2             3    7     1       0.9671983718E-02       4    7    1         0.4091053967E+00      0.1493798762E+01
          0                 2           2             4    7     1       0.1176032743E-02       4    7    1         0.6199330763E-01      0.1796899611E+00
          0                 3           2             4    7     1       0.1762398605E-03       4    7    1         0.9240531966E-02      0.2115390238E-01
          0                 4           1             4    7     1       0.2639290657E-04       4    7    1         0.1387633595E-02      0.2910446938E-02

    ------------------------------------------------
       NWT REQUIRED            4 OUTER ITERATIONS 
       AND A TOTAL OF          7 INNER ITERATIONS.
    ------------------------------------------------

 NO OUTPUT CONTROL FOR STRESS PERIOD   40   TIME STEP   13
 
 SOLVING FOR HEAD 
                                                   Max.-Head-Change                         Max.-Flux-Residual
  Residual-Control   Outer-Iter.   Inner-Iter.     Column Row Layer    Maximum-Head-Change  Column Row Layer    Maximum-Flux-Residual          L2-NORM 
          0                 1           2             3    7     1       0.9627000490E-02       4    7    1         0.4061933754E+00      0.1478609989E+01
          0                 2           2             4    7     1       0.1167769066E-02       4    7    1         0.6155659309E-01      0.1781224396E+00
          0                 3           2             4    7     1       0.1750092075E-03       4    7    1         0.9175729216E-02      0.2100505532E-01
          0                 4           1             4    7     1       0.2620969160E-04       4    7    1         0.1377969340E-02      0.2892094224E-02

    ------------------------------------------------
       NWT REQUIRED            4 OUTER ITERATIONS 
       AND A TOTAL OF          7 INNER ITERATIONS.
    ------------------------------------------------

 NO OUTPUT CONTROL FOR STRESS PERIOD   40   TIME STEP   14
 
 SOLVING FOR HEAD 
                                                   Max.-Head-Change                         Max.-Flux-Residual
  Residual-Control   Outer-Iter.   Inner-Iter.     Column Row Layer    Maximum-Head-Change  Column Row Layer    Maximum-Flux-Residual          L2-NORM 
          0                 1           2             3    7     1       0.9582317770E-02       4    7    1         0.4033238977E+00      0.1464650389E+01
          0                 2           2             4    7     1       0.1159623436E-02       4    7    1         0.6112615549E-01      0.1766552516E+00
          0                 3           2             4    7     1       0.1737959159E-03       4    7    1         0.9111848109E-02      0.2086090354E-01
          0                 4           1             4    7     1       0.2602902977E-04       4    7    1         0.1368440729E-02      0.2873939125E-02

    ------------------------------------------------
       NWT REQUIRED            4 OUTER ITERATIONS 
       AND A TOTAL OF          7 INNER ITERATIONS.
    ------------------------------------------------

 NO OUTPUT CONTROL FOR STRESS PERIOD   40   TIME STEP   15
 
 SOLVING FOR HEAD 
                                                   Max.-Head-Change                         Max.-Flux-Residual
  Residual-Control   Outer-Iter.   Inner-Iter.     Column Row Layer    Maximum-Head-Change  Column Row Layer    Maximum-Flux-Residual          L2-NORM 
          0                 1           2             3    7     1       0.9537695125E-02       4    7    1         0.4004957380E+00      0.1451761935E+01
          0                 2           2             4    7     1       0.1151592611E-02       4    7    1         0.6070180990E-01      0.1752759636E+00
          0                 3           2             4    7     1       0.1725995388E-03       4    7    1         0.9048864331E-02      0.2072115337E-01
          0                 4           1             4    7     1       0.2585086041E-04       4    7    1         0.1359044355E-02      0.2856025624E-02

    ------------------------------------------------
       NWT REQUIRED            4 OUTER ITERATIONS 
       AND A TOTAL OF          7 INNER ITERATIONS.
    ------------------------------------------------

 NO OUTPUT CONTROL FOR STRESS PERIOD   40   TIME STEP   16
 
 SOLVING FOR HEAD 
                                                   Max.-Head-Change                         Max.-Flux-Residual
  Residual-Control   Outer-Iter.   Inner-Iter.     Column Row Layer    Maximum-Head-Change  Column Row Layer    Maximum-Flux-Residual          L2-NORM 
          0                 1           2             3    7     1       0.9493137856E-02       4    7    1         0.3977077024E+00      0.1439794904E+01
          0                 2           2             4    7     1       0.1143672040E-02       4    7    1         0.6028333910E-01      0.1739717650E+00
          0                 3           2             4    7     1       0.1714192972E-03       4    7    1         0.8986739947E-02      0.2058265858E-01
          0                 4           1             4    7     1       0.2567505223E-04       4    7    1         0.1349773757E-02      0.2837988671E-02

    ------------------------------------------------
       NWT REQUIRED            4 OUTER ITERATIONS 
       AND A TOTAL OF          7 INNER ITERATIONS.
    ------------------------------------------------

 NO OUTPUT CONTROL FOR STRESS PERIOD   40   TIME STEP   17
 
 SOLVING FOR HEAD 
                                                   Max.-Head-Change                         Max.-Flux-Residual
  Residual-Control   Outer-Iter.   Inner-Iter.     Column Row Layer    Maximum-Head-Change  Column Row Layer    Maximum-Flux-Residual          L2-NORM 
          0                 1           2             3    7     1       0.9448895740E-02       4    7    1         0.3949584236E+00      0.1428641799E+01
          0                 2           2             4    7     1       0.1135859524E-02       4    7    1         0.5987060492E-01      0.1727360266E+00
          0                 3           2             4    7     1       0.1702549950E-03       4    7    1         0.8925460102E-02      0.2045217452E-01
          0                 4           1             4    7     1       0.2550159547E-04       4    7    1         0.1340627832E-02      0.2820731854E-02

    ------------------------------------------------
       NWT REQUIRED            4 OUTER ITERATIONS 
       AND A TOTAL OF          7 INNER ITERATIONS.
    ------------------------------------------------

 NO OUTPUT CONTROL FOR STRESS PERIOD   40   TIME STEP   18
 
 SOLVING FOR HEAD 
                                                   Max.-Head-Change                         Max.-Flux-Residual
  Residual-Control   Outer-Iter.   Inner-Iter.     Column Row Layer    Maximum-Head-Change  Column Row Layer    Maximum-Flux-Residual          L2-NORM 
          0                 1           2             3    7     1       0.9404724372E-02       4    7    1         0.3922395660E+00      0.1418183839E+01
          0                 2           2             4    7     1       0.1128133029E-02       4    7    1         0.5946240891E-01      0.1715559177E+00
          0                 3           2             4    7     1       0.1691034848E-03       4    7    1         0.8864855277E-02      0.2032246010E-01
          0                 4           1             4    7     1       0.2533003868E-04       4    7    1         0.1331582271E-02      0.2803373305E-02

    ------------------------------------------------
       NWT REQUIRED            4 OUTER ITERATIONS 
       AND A TOTAL OF          7 INNER ITERATIONS.
    ------------------------------------------------

 NO OUTPUT CONTROL FOR STRESS PERIOD   40   TIME STEP   19
 
 SOLVING FOR HEAD 
                                                   Max.-Head-Change                         Max.-Flux-Residual
  Residual-Control   Outer-Iter.   Inner-Iter.     Column Row Layer    Maximum-Head-Change  Column Row Layer    Maximum-Flux-Residual          L2-NORM 
          0                 1           2             3    7     1       0.9360629021E-02       4    7    1         0.3895651309E+00      0.1408341394E+01
          0                 2           2             4    7     1       0.1120527073E-02       4    7    1         0.5906066345E-01      0.1704283333E+00
          0                 3           2             4    7     1       0.1679694978E-03       4    7    1         0.8805187230E-02      0.2019543942E-01
          0                 4           1             4    7     1       0.2516103227E-04       4    7    1         0.1322672966E-02      0.2786160253E-02

    ------------------------------------------------
       NWT REQUIRED            4 OUTER ITERATIONS 
       AND A TOTAL OF          7 INNER ITERATIONS.
    ------------------------------------------------

 NO OUTPUT CONTROL FOR STRESS PERIOD   40   TIME STEP   20
 
 SOLVING FOR HEAD 
                                                   Max.-Head-Change                         Max.-Flux-Residual
  Residual-Control   Outer-Iter.   Inner-Iter.     Column Row Layer    Maximum-Head-Change  Column Row Layer    Maximum-Flux-Residual          L2-NORM 
          0                 1           2             3    7     1       0.9316859645E-02       4    7    1         0.3869260300E+00      0.1399047966E+01
          0                 2           2             4    7     1       0.1113020486E-02       4    7    1         0.5866417897E-01      0.1693475031E+00
          0                 3           2             4    7     1       0.1668502374E-03       4    7    1         0.8746297322E-02      0.2007118781E-01
          0                 4           1             4    7     1       0.2499420683E-04       4    7    1         0.1313879057E-02      0.2769222591E-02

    ------------------------------------------------
       NWT REQUIRED            4 OUTER ITERATIONS 
       AND A TOTAL OF          7 INNER ITERATIONS.
    ------------------------------------------------

 NO OUTPUT CONTROL FOR STRESS PERIOD   40   TIME STEP   21
 
 SOLVING FOR HEAD 
                                                   Max.-Head-Change                         Max.-Flux-Residual
  Residual-Control   Outer-Iter.   Inner-Iter.     Column Row Layer    Maximum-Head-Change  Column Row Layer    Maximum-Flux-Residual          L2-NORM 
          0                 1           2             3    7     1       0.9273171679E-02       4    7    1         0.3843214800E+00      0.1390221928E+01
          0                 2           2             4    7     1       0.1105610433E-02       4    7    1         0.5827280808E-01      0.1683064560E+00
          0                 3           2             4    7     1       0.1657452432E-03       4    7    1         0.8688162856E-02      0.1994914561E-01
          0                 4           1             4    7     1       0.2482948970E-04       4    7    1         0.1305196819E-02      0.2752396231E-02

    ------------------------------------------------
       NWT REQUIRED            4 OUTER ITERATIONS 
       AND A TOTAL OF          7 INNER ITERATIONS.
    ------------------------------------------------

 NO OUTPUT CONTROL FOR STRESS PERIOD   40   TIME STEP   22
 
 SOLVING FOR HEAD 
                                                   Max.-Head-Change                         Max.-Flux-Residual
  Residual-Control   Outer-Iter.   Inner-Iter.     Column Row Layer    Maximum-Head-Change  Column Row Layer    Maximum-Flux-Residual          L2-NORM 
          0                 1           2             3    7     1       0.9229570915E-02       4    7    1         0.3817505771E+00      0.1381815607E+01
          0                 2           2             4    7     1       0.1098292658E-02       4    7    1         0.5788635771E-01      0.1673012592E+00
          0                 3           2             4    7     1       0.1646537450E-03       4    7    1         0.8630747309E-02      0.1982933847E-01
          0                 4           1             4    7     1       0.2466674732E-04       4    7    1         0.1296619770E-02      0.2735713111E-02

    ------------------------------------------------
       NWT REQUIRED            4 OUTER ITERATIONS 
       AND A TOTAL OF          7 INNER ITERATIONS.
    ------------------------------------------------

 NO OUTPUT CONTROL FOR STRESS PERIOD   40   TIME STEP   23
 
 SOLVING FOR HEAD 
                                                   Max.-Head-Change                         Max.-Flux-Residual
  Residual-Control   Outer-Iter.   Inner-Iter.     Column Row Layer    Maximum-Head-Change  Column Row Layer    Maximum-Flux-Residual          L2-NORM 
          0                 1           2             3    7     1       0.9186314685E-02       5    8    1         0.4206240384E+00      0.1404973804E+01
          0                 2           2             5    8     1       0.1538592229E-02       5    8    1         0.8413145963E-01      0.1808938728E+00
          0                 3           2             5    8     1       0.2949267253E-03       5    8    1         0.1596997186E-01      0.2464283979E-01
          0                 4           1             5    8     1       0.5624299692E-04       5    8    1         0.3068295811E-02      0.4021194049E-02

    ------------------------------------------------
       NWT REQUIRED            4 OUTER ITERATIONS 
       AND A TOTAL OF          7 INNER ITERATIONS.
    ------------------------------------------------

 NO OUTPUT CONTROL FOR STRESS PERIOD   40   TIME STEP   24
 
 SOLVING FOR HEAD 
                                                   Max.-Head-Change                         Max.-Flux-Residual
  Residual-Control   Outer-Iter.   Inner-Iter.     Column Row Layer    Maximum-Head-Change  Column Row Layer    Maximum-Flux-Residual          L2-NORM 
          0                 1           2             3    7     1       0.9143198753E-02       5    8    1         0.4159929304E+00      0.1398814515E+01
          0                 2           2             5    8     1       0.1523121300E-02       5    8    1         0.8327997084E-01      0.1799997768E+00
          0                 3           2             5    8     1       0.2920373830E-03       5    8    1         0.1581029917E-01      0.2449244734E-01
          0                 4           1             5    8     1       0.5570250208E-04       5    8    1         0.3038509729E-02      0.3992891953E-02

    ------------------------------------------------
       NWT REQUIRED            4 OUTER ITERATIONS 
       AND A TOTAL OF          7 INNER ITERATIONS.
    ------------------------------------------------

 NO OUTPUT CONTROL FOR STRESS PERIOD   40   TIME STEP   25
 
 SOLVING FOR HEAD 
                                                   Max.-Head-Change                         Max.-Flux-Residual
  Residual-Control   Outer-Iter.   Inner-Iter.     Column Row Layer    Maximum-Head-Change  Column Row Layer    Maximum-Flux-Residual          L2-NORM 
          0                 1           2             3    7     1       0.9100482658E-02       5    8    1         0.4039117366E+00      0.1390676218E+01
          0                 2           2             5    8     1       0.1482329914E-02       5    8    1         0.8103257319E-01      0.1784633413E+00
          0                 3           2             5    8     1       0.2844047026E-03       5    8    1         0.1538934880E-01      0.2416856349E-01
          0                 4           1             5    8     1       0.5427310621E-04       5    8    1         0.2959764917E-02      0.3926072825E-02

    ------------------------------------------------
       NWT REQUIRED            4 OUTER ITERATIONS 
       AND A TOTAL OF          7 INNER ITERATIONS.
    ------------------------------------------------

 NO OUTPUT CONTROL FOR STRESS PERIOD   40   TIME STEP   26
 
 SOLVING FOR HEAD 
                                                   Max.-Head-Change                         Max.-Flux-Residual
  Residual-Control   Outer-Iter.   Inner-Iter.     Column Row Layer    Maximum-Head-Change  Column Row Layer    Maximum-Flux-Residual          L2-NORM 
          0                 1           2             3    7     1       0.9057934813E-02       5    8    1         0.3928108036E+00      0.1382917399E+01
          0                 2           2             5    8     1       0.1444753358E-02       5    8    1         0.7896302040E-01      0.1770149416E+00
          0                 3           2             5    8     1       0.2773676765E-03       5    8    1         0.1500148305E-01      0.2386641281E-01
          0                 4           1             5    8     1       0.5295442788E-04       5    8    1         0.2887144541E-02      0.3864032712E-02

    ------------------------------------------------
       NWT REQUIRED            4 OUTER ITERATIONS 
       AND A TOTAL OF          7 INNER ITERATIONS.
    ------------------------------------------------

 NO OUTPUT CONTROL FOR STRESS PERIOD   40   TIME STEP   27
 
 SOLVING FOR HEAD 
                                                   Max.-Head-Change                         Max.-Flux-Residual
  Residual-Control   Outer-Iter.   Inner-Iter.     Column Row Layer    Maximum-Head-Change  Column Row Layer    Maximum-Flux-Residual          L2-NORM 
          0                 1           2             3    7     1       0.9015568287E-02       5    8    1         0.3826061869E+00      0.1375506917E+01
          0                 2           2             5    8     1       0.1410124199E-02       5    8    1         0.7705640828E-01      0.1756474489E+00
          0                 3           2             5    8     1       0.2708773273E-03       5    8    1         0.1464396136E-01      0.2358427167E-01
          0                 4           1             5    8     1       0.5173744619E-04       5    8    1         0.2820146998E-02      0.3806353951E-02

    ------------------------------------------------
       NWT REQUIRED            4 OUTER ITERATIONS 
       AND A TOTAL OF          7 INNER ITERATIONS.
    ------------------------------------------------

 NO OUTPUT CONTROL FOR STRESS PERIOD   40   TIME STEP   28
 
 SOLVING FOR HEAD 
                                                   Max.-Head-Change                         Max.-Flux-Residual
  Residual-Control   Outer-Iter.   Inner-Iter.     Column Row Layer    Maximum-Head-Change  Column Row Layer    Maximum-Flux-Residual          L2-NORM 
          0                 1           2             3    7     1       0.8973635713E-02       5    8    1         0.3732002600E+00      0.1368389041E+01
          0                 2           2             5    8     1       0.1378121048E-02       5    8    1         0.7529503249E-01      0.1743489311E+00
          0                 3           2             5    8     1       0.2648739189E-03       5    8    1         0.1431346969E-01      0.2331930817E-01
          0                 4           1             5    8     1       0.5061102859E-04       5    8    1         0.2758157502E-02      0.3752499259E-02

    ------------------------------------------------
       NWT REQUIRED            4 OUTER ITERATIONS 
       AND A TOTAL OF          7 INNER ITERATIONS.
    ------------------------------------------------

 NO OUTPUT CONTROL FOR STRESS PERIOD   40   TIME STEP   29
 
 SOLVING FOR HEAD 
                                                   Max.-Head-Change                         Max.-Flux-Residual
  Residual-Control   Outer-Iter.   Inner-Iter.     Column Row Layer    Maximum-Head-Change  Column Row Layer    Maximum-Flux-Residual          L2-NORM 
          0                 1           2             3    7     1       0.8931653190E-02       4    7    1         0.3661928854E+00      0.1361518852E+01
          0                 2           2             5    8     1       0.1348483045E-02       5    8    1         0.7366438755E-01      0.1731106434E+00
          0                 3           2             5    8     1       0.2593093000E-03       5    8    1         0.1400733000E-01      0.2306961961E-01
          0                 4           1             5    8     1       0.4956625136E-04       5    8    1         0.2700681531E-02      0.3702043944E-02

    ------------------------------------------------
       NWT REQUIRED            4 OUTER ITERATIONS 
       AND A TOTAL OF          7 INNER ITERATIONS.
    ------------------------------------------------

 NO OUTPUT CONTROL FOR STRESS PERIOD   40   TIME STEP   30



 STREAM LISTING     PERIOD     40   STEP       30

 LAYER ROW COL. STREAM  RCH.  FLOW INTO     FLOW TO   FLOW OUT OF   OVRLND.     DIRECT     STREAM       STREAM     STREAM     STREAM   STREAMBED  STREAMBED
                SEG.NO.  NO.  STRM. RCH.    AQUIFER    STRM. RCH.    RUNOFF     PRECIP       ET          HEAD       DEPTH      WIDTH   CONDCTNC.   GRADIENT

   1    1    1     1     1    3.6749E+01  2.9261E-01   3.6456E+01  0.000E+00  0.000E+00  0.000E+00  1.09435E+03  1.306E+00  1.510E+01  6.795E-02  1.435E+00
   1    2    2     1     2    3.6456E+01  4.5309E-01   3.6003E+01  0.000E+00  0.000E+00  0.000E+00  1.08936E+03  1.303E+00  1.504E+01  1.053E-01  1.434E+00
   1    3    3     1     3    3.6003E+01  3.8635E-01   3.5617E+01  0.000E+00  0.000E+00  0.000E+00  1.08372E+03  1.300E+00  1.497E+01  8.985E-02  1.433E+00
   1    3    4     1     4    3.5617E+01  3.5571E-01   3.5261E+01  0.000E+00  0.000E+00  0.000E+00  1.07870E+03  1.297E+00  1.492E+01  8.278E-02  1.432E+00
   1    4    5     2     1    3.3261E+01  3.4544E-01   3.2916E+01  0.000E+00  0.000E+00  0.000E+00  1.07336E+03  1.429E+00  1.200E+01  7.800E-02  1.476E+00
   1    5    6     2     2    3.2916E+01  2.6525E-01   3.2650E+01  0.000E+00  0.000E+00  0.000E+00  1.06793E+03  1.421E+00  1.200E+01  6.000E-02  1.474E+00
   1    6    6     2     3    3.2650E+01  2.6483E-01   3.2386E+01  0.000E+00  0.000E+00  0.000E+00  1.06321E+03  1.414E+00  1.200E+01  6.000E-02  1.471E+00
   1    7    6     2     4    3.2386E+01  2.6442E-01   3.2121E+01  0.000E+00  0.000E+00  0.000E+00  1.05848E+03  1.407E+00  1.200E+01  6.000E-02  1.469E+00
   1    8    6     2     5    3.2121E+01  2.6400E-01   3.1857E+01  0.000E+00  0.000E+00  0.000E+00  1.05376E+03  1.400E+00  1.200E+01  6.000E-02  1.467E+00
   1    3    5     3     1    2.0000E+00  2.8252E-01   1.7175E+00  0.000E+00  0.000E+00  0.000E+00  1.07555E+03  1.909E+00  9.636E+00  7.227E-02  1.955E+00
   1    3    6     3     2    1.7175E+00  2.4905E-01   1.4684E+00  0.000E+00  0.000E+00  0.000E+00  1.07264E+03  1.727E+00  8.909E+00  6.682E-02  1.864E+00
   1    3    7     3     3    1.4684E+00  1.9718E-01   1.2712E+00  0.000E+00  0.000E+00  0.000E+00  1.06987E+03  1.555E+00  8.218E+00  5.547E-02  1.777E+00
   1    4    8     3     4    1.2712E+00  2.2567E-01   1.0456E+00  0.000E+00  0.000E+00  0.000E+00  1.06682E+03  1.364E+00  7.455E+00  6.709E-02  1.682E+00
   1    5    8     3     5    1.0456E+00  1.5790E-01   8.8768E-01  0.000E+00  0.000E+00  0.000E+00  1.06362E+03  1.164E+00  6.655E+00  4.991E-02  1.582E+00
   1    6    8     3     6    8.8768E-01  5.5980E-02   8.3170E-01  0.000E+00  0.000E+00  0.000E+00  1.06158E+03  1.036E+00  6.145E+00  1.844E-02  1.518E+00
   1    5   10     4     1    1.0000E+01  9.0919E-02   9.9091E+00  0.000E+00  0.000E+00  0.000E+00  1.07836E+03  6.368E-01  1.000E+01  2.500E-02  1.212E+00
   1    5    9     4     2    9.9091E+00  1.8158E-01   9.7275E+00  0.000E+00  0.000E+00  0.000E+00  1.07154E+03  6.315E-01  1.000E+01  5.000E-02  1.211E+00
   1    6    8     4     3    9.7275E+00  1.2689E-01   9.6006E+00  0.000E+00  0.000E+00  0.000E+00  1.06381E+03  6.256E-01  1.000E+01  3.500E-02  1.209E+00
   1    6    8     5     1    1.0432E+01  2.2686E-01   1.0205E+01  0.000E+00  0.000E+00  0.000E+00  1.05868E+03  6.790E-01  1.542E+01  6.166E-02  1.226E+00
   1    7    7     5     2    1.0205E+01  2.7894E-01   9.9265E+00  0.000E+00  0.000E+00  0.000E+00  1.05417E+03  6.732E-01  1.519E+01  7.594E-02  1.224E+00
   1    8    7     5     3    9.9265E+00  1.9221E-01   9.7343E+00  0.000E+00  0.000E+00  0.000E+00  1.04992E+03  6.676E-01  1.497E+01  5.241E-02  1.223E+00
   1    8    6     5     4    9.7343E+00  1.3577E-01   9.5985E+00  0.000E+00  0.000E+00  0.000E+00  1.04691E+03  6.637E-01  1.482E+01  3.706E-02  1.221E+00
   1    9    6     6     1    4.1456E+01  2.7904E-01   4.1177E+01  0.000E+00  0.000E+00  0.000E+00  1.04438E+03  1.651E+00  1.200E+01  6.000E-02  1.550E+00
   1   10    7     6     2    4.1177E+01  2.7863E-01   4.0898E+01  0.000E+00  0.000E+00  0.000E+00  1.03983E+03  1.644E+00  1.200E+01  6.000E-02  1.548E+00
   1   11    7     6     3    4.0898E+01  2.7823E-01   4.0620E+01  0.000E+00  0.000E+00  0.000E+00  1.03527E+03  1.637E+00  1.200E+01  6.000E-02  1.546E+00
   1   12    7     6     4    4.0620E+01  2.7783E-01   4.0342E+01  0.000E+00  0.000E+00  0.000E+00  1.03072E+03  1.630E+00  1.200E+01  6.000E-02  1.543E+00
   1   13    7     6     5    4.0342E+01  2.6142E-02   4.0316E+01  0.000E+00  0.000E+00  0.000E+00  1.02754E+03  1.627E+00  1.200E+01  2.400E-02  3.631E-01
   1   14    9     7     1    1.5000E+02  1.4018E+00   1.4860E+02  0.000E+00  0.000E+00  0.000E+00  1.03987E+03  2.288E+00  5.529E+01  5.593E-01  8.355E-01
   1   13    8     7     2    1.4860E+02  2.0399E+00   1.4656E+02  0.000E+00  0.000E+00  0.000E+00  1.03478E+03  2.278E+00  5.525E+01  6.147E-01  1.106E+00
   1   13    7     7     3    1.4656E+02  1.8094E+00   1.4475E+02  0.000E+00  0.000E+00  0.000E+00  1.02969E+03  2.268E+00  5.521E+01  5.583E-01  1.080E+00
   1   13    6     8     1    1.8506E+02  1.3196E+00   1.8375E+02  0.000E+00  0.000E+00  0.000E+00  1.02492E+03  3.044E+00  4.413E+01  4.497E-01  9.780E-01
   1   13    5     8     2    1.8375E+02  5.1540E-01   1.8323E+02  0.000E+00  0.000E+00  0.000E+00  1.01866E+03  3.038E+00  4.405E+01  4.489E-01  3.827E-01
   1   13    4     8     3    1.8323E+02 -1.3620E+00   1.8459E+02  0.000E+00  0.000E+00  0.000E+00  1.01242E+03  3.041E+00  4.409E+01  4.493E+00 -1.011E-01
   1   13    3     8     4    1.8459E+02 -3.0985E+00   1.8769E+02  0.000E+00  0.000E+00  0.000E+00  1.00618E+03  3.054E+00  4.429E+01  4.513E+00 -2.289E-01
   1   13    2     8     5    1.8769E+02 -2.3757E+00   1.9007E+02  0.000E+00  0.000E+00  0.000E+00  9.99946E+02  3.071E+00  4.453E+01  4.538E+00 -1.745E-01
   1   13    1     8     6    1.9007E+02 -1.8652E+00   1.9193E+02  0.000E+00  0.000E+00  0.000E+00  9.94959E+02  3.084E+00  4.472E+01  2.734E+00 -2.274E-01
   1    8    6     9     1    0.0000E+00  0.0000E+00   0.0000E+00  0.000E+00  0.000E+00  0.000E+00  1.07875E+03  0.000E+00  4.000E+00  0.000E+00  1.000E+00
   1    8    5     9     2    0.0000E+00  0.0000E+00   0.0000E+00  0.000E+00  0.000E+00  0.000E+00  1.07825E+03  0.000E+00  4.000E+00  0.000E+00  1.000E+00





UNSATURATED ZONE PACKAGE VOLUMETRIC BUDGET FOR  TIME STEP    30 STRESS PERIOD   40
  ------------------------------------------------------------------------------



     CUMULATIVE VOLUMES      L**3       RATES FOR THIS TIME STEP      L**3/T
     ------------------                 ------------------------

           IN:                                      IN:
           ---                                      ---
        INFILTRATION =  1759415513.2224          INFILTRATION =           0.8475

          OUT:                                     OUT:
          ----                                     ----
              UZF ET =  1290867819.8850                UZF ET =           0.7500
        UZF RECHARGE =    85176545.7581          UZF RECHARGE =           1.0056

            IN - OUT =   383371147.5793              IN - OUT =          -0.9081

          STORAGE:                                 STORAGE:
          --------                                 --------
      STORAGE CHANGE =   383375714.5195        STORAGE CHANGE =          -0.9081

 PERCENT DISCREPANCY IS DIFFERENCE BETWEEN IN-OUT MINUS CHANGE IN STORAGE
 DIVIDED BY THE AVERAGE OF IN AND OUT TIMES 100

 PERCENT DISCREPANCY =          -0.00     PERCENT DISCREPANCY =           0.00






1
  VOLUMETRIC BUDGET FOR AGRICULTURAL FIELDS AT  END OF TIME STEP   30, STRESS PERIOD  40
  ------------------------------------------------------------------------------

     CUMULATIVE VOLUMES      L**3       RATES FOR THIS TIME STEP      L**3/T
     ------------------                 ------------------------

           IN:                                      IN:
           ---                                      ---
               AG WELLS  =  1101049344.0000                 AG WELLS  =           0.0000
      DIVERSION SEGMENTS =   571557568.0000        DIVERSION SEGMENTS =           0.0000
       IRRIGATION PONDS  =           0.0000         IRRIGATION PONDS  =           0.0000
           GW IRRIGATION =           0.0000             GW IRRIGATION =           0.0000
           SW IRRIGATION =           0.0000             SW IRRIGATION =           0.0000
        SYSTEM LOSSES GW =           0.0000          SYSTEM LOSSES GW =           0.0000
        SYSTEM LOSSES SW =           0.0000          SYSTEM LOSSES SW =           0.0000

                TOTAL IN =  1672606976.0000                  TOTAL IN =           0.0000

          OUT:                                     OUT:
          ----                                     ----
               AG WELLS  =           0.0000                 AG WELLS  =           0.0000
      DIVERSION SEGMENTS =           0.0000        DIVERSION SEGMENTS =           0.0000
       IRRIGATION PONDS  =           0.0000         IRRIGATION PONDS  =           0.0000
           GW IRRIGATION =  1101049344.0000             GW IRRIGATION =           0.0000
           SW IRRIGATION =   571569024.0000             SW IRRIGATION =           0.0000
        SYSTEM LOSSES GW =           0.0000          SYSTEM LOSSES GW =           0.0000
        SYSTEM LOSSES SW =           0.0000          SYSTEM LOSSES SW =           0.0000

               TOTAL OUT =  1672618368.0000                 TOTAL OUT =           0.0000

                IN - OUT =      -11392.0000                  IN - OUT =           0.0000

     PERCENT DISCREPANCY =          -0.00         PERCENT DISCREPANCY =           0.00



1
  VOLUMETRIC BUDGET FOR ENTIRE MODEL AT END OF TIME STEP   30, STRESS PERIOD  40
  ------------------------------------------------------------------------------

     CUMULATIVE VOLUMES      L**3       RATES FOR THIS TIME STEP      L**3/T
     ------------------                 ------------------------

           IN:                                      IN:
           ---                                      ---
             STORAGE     =  1709582720.0000               STORAGE     =           2.2269
       CONSTANT HEAD     =           0.0000         CONSTANT HEAD     =           0.0000
     HEAD DEP BOUNDS     =    29636706.0000       HEAD DEP BOUNDS     =           0.2902
      STREAM LEAKAGE     =  1231731456.0000        STREAM LEAKAGE     =          13.5192
        UZF RECHARGE     =    85176560.0000          UZF RECHARGE     =           1.0056
               GW ET     =           0.0000                 GW ET     =           0.0000
     SURFACE LEAKAGE     =           0.0000       SURFACE LEAKAGE     =           0.0000
           AG WELLS      =           0.0000             AG WELLS      =           0.0000

                TOTAL IN =  3056127488.0000                  TOTAL IN =          17.0419

          OUT:                                     OUT:
          ----                                     ----
             STORAGE     =   920715456.0000               STORAGE     =           8.0488
       CONSTANT HEAD     =           0.0000         CONSTANT HEAD     =           0.0000
     HEAD DEP BOUNDS     =    29538582.0000       HEAD DEP BOUNDS     =           0.2904
      STREAM LEAKAGE     =  1004794752.0000        STREAM LEAKAGE     =           8.7014
        UZF RECHARGE     =           0.0000          UZF RECHARGE     =           0.0000
               GW ET     =           0.0000                 GW ET     =           0.0000
     SURFACE LEAKAGE     =           0.0000       SURFACE LEAKAGE     =           0.0000
           AG WELLS      =  1101049344.0000             AG WELLS      =           0.0000

               TOTAL OUT =  3056098048.0000                 TOTAL OUT =          17.0405

                IN - OUT =       29440.0000                  IN - OUT =       1.3866E-03

     PERCENT DISCREPANCY =           0.00         PERCENT DISCREPANCY =           0.01






         TIME SUMMARY AT END OF TIME STEP   30 IN STRESS PERIOD   40
                    SECONDS     MINUTES      HOURS       DAYS        YEARS
                    -----------------------------------------------------------
   TIME STEP LENGTH  87667.      1461.1      24.352      1.0147     2.77799E-03
 STRESS PERIOD TIME 2.63000E+06  43833.      730.56      30.440     8.33397E-02
         TOTAL TIME 1.02656E+08 1.71093E+06  28515.      1188.1      3.2530    
1
1
                            STRESS PERIOD NO.   41, LENGTH =   2630000.    
                            -----------------------------------------------

                              NUMBER OF TIME STEPS =    30

                               MULTIPLIER FOR DELT =     1.000

                            INITIAL TIME STEP SIZE =   87666.66    

 REUSING NON-PARAMETER GHB CELLS FROM LAST STRESS PERIOD

      2 GHB CELLS

 REUSING STREAM SEGMENT DATA FROM LAST STRESS PERIOD



            AREAL INFILTRATION RATE
 READING ON UNIT   19 WITH FORMAT: (FREE)              

            1           2           3           4           5           6           7           8           9          10
 ........................................................................................................................
   1   1.0000E-10  2.0000E-10   0.000       0.000       0.000       0.000       0.000       0.000       0.000       0.000    
   2   2.0000E-10  1.0000E-10  2.0000E-10   0.000       0.000      8.0000E-10  8.0000E-10  5.0000E-10   0.000       0.000    
   3    0.000      5.0000E-10  1.0000E-10  1.0000E-10  8.0000E-10  8.0000E-10  5.0000E-10  5.0000E-10   0.000       0.000    
   4   8.0000E-10  5.0000E-10  1.0000E-10  1.0000E-10  1.0000E-10  1.0000E-10  1.0000E-10  1.0000E-10  2.0000E-10   0.000    
   5   8.0000E-10  5.0000E-10  1.0000E-10  1.0000E-10  1.0000E-10  1.0000E-10  1.0000E-10  1.0000E-10  1.0000E-10  1.0000E-10
   6   8.0000E-10  5.0000E-10  5.0000E-10  2.0000E-10  2.0000E-10  1.0000E-10  1.0000E-10  1.0000E-10  1.0000E-10  5.0000E-10
   7   8.0000E-10  5.0000E-10  5.0000E-10  2.0000E-10  2.0000E-10  1.0000E-10  1.0000E-10  2.0000E-10  2.0000E-10   0.000    
   8    0.000      5.0000E-10  5.0000E-10  2.0000E-10  2.0000E-10  1.0000E-10  1.0000E-10  2.0000E-10  5.0000E-10   0.000    
   9    0.000      5.0000E-10  5.0000E-10  2.0000E-10  2.0000E-10  1.0000E-10  1.0000E-10  2.0000E-10  5.0000E-10   0.000    
  10    0.000      5.0000E-10  5.0000E-10  2.0000E-10  2.0000E-10  1.0000E-10  1.0000E-10  2.0000E-10  5.0000E-10  8.0000E-10
  11    0.000      1.0000E-10  1.0000E-10  1.0000E-10  1.0000E-10  1.0000E-10  1.0000E-10  2.0000E-10  5.0000E-10   0.000    
  12   1.0000E-10  1.0000E-10  1.0000E-10  1.0000E-10  1.0000E-10  1.0000E-10  1.0000E-10  1.0000E-10  2.0000E-10   0.000    
  13   1.0000E-10  1.0000E-10  2.0000E-10  2.0000E-10  2.0000E-10  2.0000E-10  2.0000E-10  1.0000E-10  1.0000E-10   0.000    
  14    0.000      2.0000E-10  5.0000E-10  5.0000E-10  5.0000E-10  5.0000E-10  5.0000E-10  2.0000E-10  1.0000E-10   0.000    
  15    0.000       0.000      8.0000E-10  8.0000E-10  8.0000E-10  8.0000E-10   0.000       0.000       0.000       0.000    

                  ET RATE =  2.500000E-08

 USING ET EXTINCTION DEPTH FROM PREVIOUS STRESS PERIOD. CURRENT PERIOD IS:      41

 USING EXTINCTION WATER CONTENT FROM PREVIOUS STRESS PERIOD. CURRENT PERIOD IS:      41

 USING AIR ENTRY PRESSURE FROM PREVIOUS STRESS PERIOD. CURRENT PERIOD IS:      41

 USING ROOT PRESSURE HEAD FROM PREVIOUS STRESS PERIOD. CURRENT PERIOD IS:      41

 USING ROOT ACTIVITY FROM PREVIOUS STRESS PERIOD. CURRENT PERIOD IS:      41

 PROCESSING AG STRESS PERIOD DATA

 READING AG STRESS PERIOD DATA

 READING IRRIGATION SEGMENT

 READING IRRIGATION WELL

 READING SUPPLEMENTAL WELL

 NO IRRPOND OR REUSING IRRPOND DATA FROM LAST STRESS PERIOD

 END PROCESSING AG STRESS PERIOD DATA OPTIONS
 
 SOLVING FOR HEAD 
                                                   Max.-Head-Change                         Max.-Flux-Residual
  Residual-Control   Outer-Iter.   Inner-Iter.     Column Row Layer    Maximum-Head-Change  Column Row Layer    Maximum-Flux-Residual          L2-NORM 
          0                 1           2             3    7     1       0.8890357710E-02       4    7    1         0.3642494057E+00      0.1354876103E+01
          0                 2           2             5    8     1       0.1321005503E-02       5    8    1         0.7215311265E-01      0.1719269988E+00
          0                 3           2             5    8     1       0.2541458506E-03       5    8    1         0.1372344053E-01      0.2283379228E-01
          0                 4           1             5    8     1       0.4859616278E-04       5    8    1         0.2647333283E-02      0.3654735002E-02

    ------------------------------------------------
       NWT REQUIRED            4 OUTER ITERATIONS 
       AND A TOTAL OF          7 INNER ITERATIONS.
    ------------------------------------------------

 NO OUTPUT CONTROL FOR STRESS PERIOD   41   TIME STEP    1
 
 SOLVING FOR HEAD 
                                                   Max.-Head-Change                         Max.-Flux-Residual
  Residual-Control   Outer-Iter.   Inner-Iter.     Column Row Layer    Maximum-Head-Change  Column Row Layer    Maximum-Flux-Residual          L2-NORM 
          0                 1           2             3    7     1       0.8849255230E-02       4    7    1         0.3623489221E+00      0.1348441000E+01
          0                 2           2             5    8     1       0.1295477723E-02       5    8    1         0.7074961194E-01      0.1707929891E+00
          0                 3           2             5    8     1       0.2493444587E-03       5    8    1         0.1345962820E-01      0.2261049572E-01
          0                 4           1             5    8     1       0.4769348464E-04       5    8    1         0.2597710582E-02      0.3610197219E-02

    ------------------------------------------------
       NWT REQUIRED            4 OUTER ITERATIONS 
       AND A TOTAL OF          7 INNER ITERATIONS.
    ------------------------------------------------

 NO OUTPUT CONTROL FOR STRESS PERIOD   41   TIME STEP    2
 
 SOLVING FOR HEAD 
                                                   Max.-Head-Change                         Max.-Flux-Residual
  Residual-Control   Outer-Iter.   Inner-Iter.     Column Row Layer    Maximum-Head-Change  Column Row Layer    Maximum-Flux-Residual          L2-NORM 
          0                 1           2             3    7     1       0.8808347605E-02       4    7    1         0.3604767338E+00      0.1342182689E+01
          0                 2           2             5    8     1       0.1271736148E-02       5    8    1         0.6944479432E-01      0.1697023872E+00
          0                 3           2             5    8     1       0.2448748690E-03       5    8    1         0.1321421316E-01      0.2239825934E-01
          0                 4           1             5    8     1       0.4685259743E-04       5    8    1         0.2551502311E-02      0.3568171319E-02

    ------------------------------------------------
       NWT REQUIRED            4 OUTER ITERATIONS 
       AND A TOTAL OF          7 INNER ITERATIONS.
    ------------------------------------------------

 NO OUTPUT CONTROL FOR STRESS PERIOD   41   TIME STEP    3
 
 SOLVING FOR HEAD 
                                                   Max.-Head-Change                         Max.-Flux-Residual
  Residual-Control   Outer-Iter.   Inner-Iter.     Column Row Layer    Maximum-Head-Change  Column Row Layer    Maximum-Flux-Residual          L2-NORM 
          0                 1           2             3    7     1       0.8767634708E-02       4    7    1         0.3586342488E+00      0.1332741752E+01
          0                 2           2             5    8     1       0.1249535244E-02       5    8    1         0.6822373607E-01      0.1683894252E+00
          0                 3           2             5    8     1       0.2406914354E-03       5    8    1         0.1298476136E-01      0.2218640093E-01
          0                 4           1             5    8     1       0.4606499751E-04       5    8    1         0.2508234824E-02      0.3528205407E-02

    ------------------------------------------------
       NWT REQUIRED            4 OUTER ITERATIONS 
       AND A TOTAL OF          7 INNER ITERATIONS.
    ------------------------------------------------

 NO OUTPUT CONTROL FOR STRESS PERIOD   41   TIME STEP    4
 
 SOLVING FOR HEAD 
                                                   Max.-Head-Change                         Max.-Flux-Residual
  Residual-Control   Outer-Iter.   Inner-Iter.     Column Row Layer    Maximum-Head-Change  Column Row Layer    Maximum-Flux-Residual          L2-NORM 
          0                 1           2             3    7     1       0.8727357031E-02       4    7    1         0.3568013955E+00      0.1326873530E+01
          0                 2           2             5    8     1       0.1228111071E-02       5    8    1         0.6702847211E-01      0.1672350706E+00
          0                 3           2             5    8     1       0.2366498481E-03       5    8    1         0.1276449109E-01      0.2197952441E-01
          0                 4           1             5    8     1       0.4530346766E-04       5    8    1         0.2466368492E-02      0.3488860356E-02

    ------------------------------------------------
       NWT REQUIRED            4 OUTER ITERATIONS 
       AND A TOTAL OF          7 INNER ITERATIONS.
    ------------------------------------------------

 NO OUTPUT CONTROL FOR STRESS PERIOD   41   TIME STEP    5
 
 SOLVING FOR HEAD 
                                                   Max.-Head-Change                         Max.-Flux-Residual
  Residual-Control   Outer-Iter.   Inner-Iter.     Column Row Layer    Maximum-Head-Change  Column Row Layer    Maximum-Flux-Residual          L2-NORM 
          0                 1           2             3    7     1       0.8687262632E-02       4    7    1         0.3549860502E+00      0.1317507632E+01
          0                 2           2             5    8     1       0.1208070234E-02       5    8    1         0.6592880334E-01      0.1659633177E+00
          0                 3           2             5    8     1       0.2328657775E-03       5    8    1         0.1255713075E-01      0.2177867894E-01
          0                 4           1             5    8     1       0.4458997276E-04       5    8    1         0.2427209208E-02      0.3451543768E-02

    ------------------------------------------------
       NWT REQUIRED            4 OUTER ITERATIONS 
       AND A TOTAL OF          7 INNER ITERATIONS.
    ------------------------------------------------

 NO OUTPUT CONTROL FOR STRESS PERIOD   41   TIME STEP    6
 
 SOLVING FOR HEAD 
                                                   Max.-Head-Change                         Max.-Flux-Residual
  Residual-Control   Outer-Iter.   Inner-Iter.     Column Row Layer    Maximum-Head-Change  Column Row Layer    Maximum-Flux-Residual          L2-NORM 
          0                 1           2             3    7     1       0.8647592590E-02       4    7    1         0.3531849686E+00      0.1308874677E+01
          0                 2           2             5    8     1       0.1189284429E-02       5    8    1         0.6489841710E-01      0.1647683966E+00
          0                 3           2             5    8     1       0.2293153906E-03       5    8    1         0.1236270447E-01      0.2158725268E-01
          0                 4           1             5    8     1       0.4392007359E-04       5    8    1         0.2390456689E-02      0.3416051056E-02

    ------------------------------------------------
       NWT REQUIRED            4 OUTER ITERATIONS 
       AND A TOTAL OF          7 INNER ITERATIONS.
    ------------------------------------------------

 NO OUTPUT CONTROL FOR STRESS PERIOD   41   TIME STEP    7
 
 SOLVING FOR HEAD 
                                                   Max.-Head-Change                         Max.-Flux-Residual
  Residual-Control   Outer-Iter.   Inner-Iter.     Column Row Layer    Maximum-Head-Change  Column Row Layer    Maximum-Flux-Residual          L2-NORM 
          0                 1           2             3    7     1       0.8608093364E-02       4    7    1         0.3513810066E+00      0.1300854239E+01
          0                 2           2             5    8     1       0.1171637855E-02       5    8    1         0.6393088648E-01      0.1636382640E+00
          0                 3           2             5    8     1       0.2259772185E-03       5    8    1         0.1218002188E-01      0.2140424000E-01
          0                 4           1             5    8     1       0.4328977800E-04       5    8    1         0.2355890105E-02      0.3382153751E-02

    ------------------------------------------------
       NWT REQUIRED            4 OUTER ITERATIONS 
       AND A TOTAL OF          7 INNER ITERATIONS.
    ------------------------------------------------

 NO OUTPUT CONTROL FOR STRESS PERIOD   41   TIME STEP    8
 
 SOLVING FOR HEAD 
                                                   Max.-Head-Change                         Max.-Flux-Residual
  Residual-Control   Outer-Iter.   Inner-Iter.     Column Row Layer    Maximum-Head-Change  Column Row Layer    Maximum-Flux-Residual          L2-NORM 
          0                 1           2             3    7     1       0.8569003345E-02       4    7    1         0.3495874369E+00      0.1293374018E+01
          0                 2           2             5    8     1       0.1155055944E-02       5    8    1         0.6302208580E-01      0.1625675175E+00
          0                 3           2             5    8     1       0.2228376412E-03       5    8    1         0.1200831701E-01      0.2122904557E-01
          0                 4           1             5    8     1       0.4269658239E-04       5    8    1         0.2323370142E-02      0.3349807713E-02

    ------------------------------------------------
       NWT REQUIRED            4 OUTER ITERATIONS 
       AND A TOTAL OF          7 INNER ITERATIONS.
    ------------------------------------------------

 NO OUTPUT CONTROL FOR STRESS PERIOD   41   TIME STEP    9
 
 SOLVING FOR HEAD 
                                                   Max.-Head-Change                         Max.-Flux-Residual
  Residual-Control   Outer-Iter.   Inner-Iter.     Column Row Layer    Maximum-Head-Change  Column Row Layer    Maximum-Flux-Residual          L2-NORM 
          0                 1           2             3    7     1       0.8529830182E-02       4    7    1         0.3478030968E+00      0.1286333309E+01
          0                 2           2             5    8     1       0.1139389890E-02       5    8    1         0.6216378723E-01      0.1615456560E+00
          0                 3           2             5    8     1       0.2198688928E-03       5    8    1         0.1184605673E-01      0.2106064925E-01
          0                 4           1             5    8     1       0.4213529794E-04       5    8    1         0.2292610556E-02      0.3318747953E-02

    ------------------------------------------------
       NWT REQUIRED            4 OUTER ITERATIONS 
       AND A TOTAL OF          7 INNER ITERATIONS.
    ------------------------------------------------

 NO OUTPUT CONTROL FOR STRESS PERIOD   41   TIME STEP   10
 
 SOLVING FOR HEAD 
                                                   Max.-Head-Change                         Max.-Flux-Residual
  Residual-Control   Outer-Iter.   Inner-Iter.     Column Row Layer    Maximum-Head-Change  Column Row Layer    Maximum-Flux-Residual          L2-NORM 
          0                 1           2             3    7     1       0.8491299547E-02       4    7    1         0.3460118891E+00      0.1279668898E+01
          0                 2           2             5    8     1       0.1124609695E-02       5    8    1         0.6135435703E-01      0.1605669801E+00
          0                 3           2             5    8     1       0.2170653596E-03       5    8    1         0.1169293022E-01      0.2089839220E-01
          0                 4           1             5    8     1       0.4160487319E-04       5    8    1         0.2263553532E-02      0.3288933111E-02

    ------------------------------------------------
       NWT REQUIRED            4 OUTER ITERATIONS 
       AND A TOTAL OF          7 INNER ITERATIONS.
    ------------------------------------------------

 NO OUTPUT CONTROL FOR STRESS PERIOD   41   TIME STEP   11
 
 SOLVING FOR HEAD 
                                                   Max.-Head-Change                         Max.-Flux-Residual
  Residual-Control   Outer-Iter.   Inner-Iter.     Column Row Layer    Maximum-Head-Change  Column Row Layer    Maximum-Flux-Residual          L2-NORM 
          0                 1           2             3    7     1       0.8452914300E-02       4    7    1         0.3442284535E+00      0.1273339029E+01
          0                 2           2             5    8     1       0.1110612911E-02       5    8    1         0.6058808568E-01      0.1596275749E+00
          0                 3           2             5    8     1       0.2144082065E-03       5    8    1         0.1154788709E-01      0.2074186545E-01
          0                 4           1             5    8     1       0.4110182923E-04       5    8    1         0.2236005837E-02      0.3260251203E-02

    ------------------------------------------------
       NWT REQUIRED            4 OUTER ITERATIONS 
       AND A TOTAL OF          7 INNER ITERATIONS.
    ------------------------------------------------

 NO OUTPUT CONTROL FOR STRESS PERIOD   41   TIME STEP   12
 
 SOLVING FOR HEAD 
                                                   Max.-Head-Change                         Max.-Flux-Residual
  Residual-Control   Outer-Iter.   Inner-Iter.     Column Row Layer    Maximum-Head-Change  Column Row Layer    Maximum-Flux-Residual          L2-NORM 
          0                 1           2             3    7     1       0.8414669962E-02       4    7    1         0.3424523351E+00      0.1267281765E+01
          0                 2           2             5    8     1       0.1097357128E-02       5    8    1         0.5986267375E-01      0.1587217638E+00
          0                 3           2             5    8     1       0.2118894485E-03       5    8    1         0.1141048669E-01      0.2059060423E-01
          0                 4           1             5    8     1       0.4062466426E-04       5    8    1         0.2209885031E-02      0.3232629941E-02

    ------------------------------------------------
       NWT REQUIRED            4 OUTER ITERATIONS 
       AND A TOTAL OF          7 INNER ITERATIONS.
    ------------------------------------------------

 NO OUTPUT CONTROL FOR STRESS PERIOD   41   TIME STEP   13
 
 SOLVING FOR HEAD 
                                                   Max.-Head-Change                         Max.-Flux-Residual
  Residual-Control   Outer-Iter.   Inner-Iter.     Column Row Layer    Maximum-Head-Change  Column Row Layer    Maximum-Flux-Residual          L2-NORM 
          0                 1           2             3    7     1       0.8376563061E-02       4    7    1         0.3406681031E+00      0.1261470022E+01
          0                 2           2             5    8     1       0.1084752721E-02       5    8    1         0.5917316456E-01      0.1578461999E+00
          0                 3           2             5    8     1       0.2094924301E-03       5    8    1         0.1127980632E-01      0.2044396344E-01
          0                 4           1             5    8     1       0.4017027277E-04       5    8    1         0.2185019620E-02      0.3205948386E-02

    ------------------------------------------------
       NWT REQUIRED            4 OUTER ITERATIONS 
       AND A TOTAL OF          7 INNER ITERATIONS.
    ------------------------------------------------

 NO OUTPUT CONTROL FOR STRESS PERIOD   41   TIME STEP   14
 
 SOLVING FOR HEAD 
                                                   Max.-Head-Change                         Max.-Flux-Residual
  Residual-Control   Outer-Iter.   Inner-Iter.     Column Row Layer    Maximum-Head-Change  Column Row Layer    Maximum-Flux-Residual          L2-NORM 
          0                 1           2             3    7     1       0.8338831511E-02       4    7    1         0.3388911990E+00      0.1255863972E+01
          0                 2           2             5    8     1       0.1072772370E-02       5    8    1         0.5851800623E-01      0.1569973883E+00
          0                 3           2             5    8     1       0.2072122423E-03       5    8    1         0.1115556866E-01      0.2030172569E-01
          0                 4           1             5    8     1       0.3973776699E-04       5    8    1         0.2161359687E-02      0.3180169961E-02

    ------------------------------------------------
       NWT REQUIRED            4 OUTER ITERATIONS 
       AND A TOTAL OF          7 INNER ITERATIONS.
    ------------------------------------------------

 NO OUTPUT CONTROL FOR STRESS PERIOD   41   TIME STEP   15
 
 SOLVING FOR HEAD 
                                                   Max.-Head-Change                         Max.-Flux-Residual
  Residual-Control   Outer-Iter.   Inner-Iter.     Column Row Layer    Maximum-Head-Change  Column Row Layer    Maximum-Flux-Residual          L2-NORM 
          0                 1           2             3    7     1       0.8301467840E-02       4    7    1         0.3371214682E+00      0.1250440948E+01
          0                 2           2             5    8     1       0.1061362999E-02       5    8    1         0.5789431304E-01      0.1561729506E+00
          0                 3           2             5    8     1       0.2050388660E-03       5    8    1         0.1103722264E-01      0.2016365264E-01
          0                 4           1             5    8     1       0.3932525785E-04       5    8    1         0.2138801591E-02      0.3155241833E-02

    ------------------------------------------------
       NWT REQUIRED            4 OUTER ITERATIONS 
       AND A TOTAL OF          7 INNER ITERATIONS.
    ------------------------------------------------

 NO OUTPUT CONTROL FOR STRESS PERIOD   41   TIME STEP   16
 
 SOLVING FOR HEAD 
                                                   Max.-Head-Change                         Max.-Flux-Residual
  Residual-Control   Outer-Iter.   Inner-Iter.     Column Row Layer    Maximum-Head-Change  Column Row Layer    Maximum-Flux-Residual          L2-NORM 
          0                 1           2             3    7     1       0.8264220501E-02       4    7    1         0.3353515126E+00      0.1245183644E+01
          0                 2           2             5    8     1       0.1050451722E-02       5    8    1         0.5729802682E-01      0.1553708643E+00
          0                 3           2             5    8     1       0.2029588137E-03       5    8    1         0.1092402014E-01      0.2002927856E-01
          0                 4           1             5    8     1       0.3893024047E-04       5    8    1         0.2117206651E-02      0.3131046329E-02

    ------------------------------------------------
       NWT REQUIRED            4 OUTER ITERATIONS 
       AND A TOTAL OF          7 INNER ITERATIONS.
    ------------------------------------------------

 NO OUTPUT CONTROL FOR STRESS PERIOD   41   TIME STEP   17
 
 SOLVING FOR HEAD 
                                                   Max.-Head-Change                         Max.-Flux-Residual
  Residual-Control   Outer-Iter.   Inner-Iter.     Column Row Layer    Maximum-Head-Change  Column Row Layer    Maximum-Flux-Residual          L2-NORM 
          0                 1           2             3    7     1       0.8227086684E-02       4    7    1         0.3335819573E+00      0.1240061215E+01
          0                 2           2             5    8     1       0.1040050375E-02       5    8    1         0.5672981745E-01      0.1545883159E+00
          0                 3           2             5    8     1       0.2009742724E-03       5    8    1         0.1081608189E-01      0.1989842231E-01
          0                 4           1             5    8     1       0.3855312054E-04       5    8    1         0.2096597383E-02      0.3107599453E-02

    ------------------------------------------------
       NWT REQUIRED            4 OUTER ITERATIONS 
       AND A TOTAL OF          7 INNER ITERATIONS.
    ------------------------------------------------

 NO OUTPUT CONTROL FOR STRESS PERIOD   41   TIME STEP   18
 
 SOLVING FOR HEAD 
                                                   Max.-Head-Change                         Max.-Flux-Residual
  Residual-Control   Outer-Iter.   Inner-Iter.     Column Row Layer    Maximum-Head-Change  Column Row Layer    Maximum-Flux-Residual          L2-NORM 
          0                 1           2             3    7     1       0.8190304936E-02       4    7    1         0.3318131894E+00      0.1235062902E+01
          0                 2           2             5    8     1       0.1030065553E-02       5    8    1         0.5618451292E-01      0.1538230183E+00
          0                 3           2             5    8     1       0.1990678738E-03       5    8    1         0.1071244652E-01      0.1977054872E-01
          0                 4           1             5    8     1       0.3819066112E-04       5    8    1         0.2076794957E-02      0.3084760186E-02

    ------------------------------------------------
       NWT REQUIRED            4 OUTER ITERATIONS 
       AND A TOTAL OF          7 INNER ITERATIONS.
    ------------------------------------------------

 NO OUTPUT CONTROL FOR STRESS PERIOD   41   TIME STEP   19
 
 SOLVING FOR HEAD 
                                                   Max.-Head-Change                         Max.-Flux-Residual
  Residual-Control   Outer-Iter.   Inner-Iter.     Column Row Layer    Maximum-Head-Change  Column Row Layer    Maximum-Flux-Residual          L2-NORM 
          0                 1           2             3    7     1       0.8153626680E-02       4    7    1         0.3300531558E+00      0.1230176817E+01
          0                 2           2             5    8     1       0.1020490401E-02       5    8    1         0.5566176490E-01      0.1530747157E+00
          0                 3           2             5    8     1       0.1972382961E-03       5    8    1         0.1061304098E-01      0.1964580483E-01
          0                 4           1             5    8     1       0.3784261034E-04       5    8    1         0.2057785675E-02      0.3062557801E-02

    ------------------------------------------------
       NWT REQUIRED            4 OUTER ITERATIONS 
       AND A TOTAL OF          7 INNER ITERATIONS.
    ------------------------------------------------

 NO OUTPUT CONTROL FOR STRESS PERIOD   41   TIME STEP   20
 
 SOLVING FOR HEAD 
                                                   Max.-Head-Change                         Max.-Flux-Residual
  Residual-Control   Outer-Iter.   Inner-Iter.     Column Row Layer    Maximum-Head-Change  Column Row Layer    Maximum-Flux-Residual          L2-NORM 
          0                 1           2             3    7     1       0.8117291517E-02       4    7    1         0.3282946020E+00      0.1225395428E+01
          0                 2           2             5    8     1       0.1011293798E-02       5    8    1         0.5515982391E-01      0.1523421412E+00
          0                 3           2             5    8     1       0.1954798282E-03       5    8    1         0.1051754728E-01      0.1952386438E-01
          0                 4           1             5    8     1       0.3750791312E-04       5    8    1         0.2039510917E-02      0.3040933389E-02

    ------------------------------------------------
       NWT REQUIRED            4 OUTER ITERATIONS 
       AND A TOTAL OF          7 INNER ITERATIONS.
    ------------------------------------------------

 NO OUTPUT CONTROL FOR STRESS PERIOD   41   TIME STEP   21
 
 SOLVING FOR HEAD 
                                                   Max.-Head-Change                         Max.-Flux-Residual
  Residual-Control   Outer-Iter.   Inner-Iter.     Column Row Layer    Maximum-Head-Change  Column Row Layer    Maximum-Flux-Residual          L2-NORM 
          0                 1           2             3    7     1       0.8081049241E-02       4    7    1         0.3265383554E+00      0.1220698941E+01
          0                 2           2             5    8     1       0.1002474219E-02       5    8    1         0.5467862671E-01      0.1516232380E+00
          0                 3           2             5    8     1       0.1937922070E-03       5    8    1         0.1042594843E-01      0.1940472254E-01
          0                 4           1             5    8     1       0.3718652343E-04       5    8    1         0.2021968138E-02      0.3019886445E-02

    ------------------------------------------------
       NWT REQUIRED            4 OUTER ITERATIONS 
       AND A TOTAL OF          7 INNER ITERATIONS.
    ------------------------------------------------

 NO OUTPUT CONTROL FOR STRESS PERIOD   41   TIME STEP   22
 
 SOLVING FOR HEAD 
                                                   Max.-Head-Change                         Max.-Flux-Residual
  Residual-Control   Outer-Iter.   Inner-Iter.     Column Row Layer    Maximum-Head-Change  Column Row Layer    Maximum-Flux-Residual          L2-NORM 
          0                 1           2             3    7     1       0.8045140977E-02       4    7    1         0.3247922260E+00      0.1216085369E+01
          0                 2           2             5    8     1       0.9939482426E-03       5    8    1         0.5421354789E-01      0.1509173428E+00
          0                 3           2             5    8     1       0.1921597587E-03       5    8    1         0.1033738511E-01      0.1928791344E-01
          0                 4           1             5    8     1       0.3687549972E-04       5    8    1         0.2004995349E-02      0.2999311515E-02

    ------------------------------------------------
       NWT REQUIRED            4 OUTER ITERATIONS 
       AND A TOTAL OF          7 INNER ITERATIONS.
    ------------------------------------------------

 NO OUTPUT CONTROL FOR STRESS PERIOD   41   TIME STEP   23
 
 SOLVING FOR HEAD 
                                                   Max.-Head-Change                         Max.-Flux-Residual
  Residual-Control   Outer-Iter.   Inner-Iter.     Column Row Layer    Maximum-Head-Change  Column Row Layer    Maximum-Flux-Residual          L2-NORM 
          0                 1           2             3    7     1       0.8009319223E-02       4    7    1         0.3230491629E+00      0.1211553228E+01
          0                 2           2             5    8     1       0.9857223415E-03       5    8    1         0.5376496771E-01      0.1502241728E+00
          0                 3           2             5    8     1       0.1905837988E-03       5    8    1         0.1025192321E-01      0.1917341432E-01
          0                 4           1             5    8     1       0.3657510010E-04       5    8    1         0.1988606524E-02      0.2979209838E-02

    ------------------------------------------------
       NWT REQUIRED            4 OUTER ITERATIONS 
       AND A TOTAL OF          7 INNER ITERATIONS.
    ------------------------------------------------

 NO OUTPUT CONTROL FOR STRESS PERIOD   41   TIME STEP   24
 
 SOLVING FOR HEAD 
                                                   Max.-Head-Change                         Max.-Flux-Residual
  Residual-Control   Outer-Iter.   Inner-Iter.     Column Row Layer    Maximum-Head-Change  Column Row Layer    Maximum-Flux-Residual          L2-NORM 
          0                 1           2             3    7     1       0.7973582425E-02       4    7    1         0.3213171091E+00      0.1207089731E+01
          0                 2           2             5    8     1       0.9778012055E-03       5    8    1         0.5333312563E-01      0.1495427529E+00
          0                 3           2             5    8     1       0.1890652112E-03       5    8    1         0.1016961245E-01      0.1906123719E-01
          0                 4           1             5    8     1       0.3628549289E-04       5    8    1         0.1972810770E-02      0.2959584750E-02

    ------------------------------------------------
       NWT REQUIRED            4 OUTER ITERATIONS 
       AND A TOTAL OF          7 INNER ITERATIONS.
    ------------------------------------------------

 NO OUTPUT CONTROL FOR STRESS PERIOD   41   TIME STEP   25
 
 SOLVING FOR HEAD 
                                                   Max.-Head-Change                         Max.-Flux-Residual
  Residual-Control   Outer-Iter.   Inner-Iter.     Column Row Layer    Maximum-Head-Change  Column Row Layer    Maximum-Flux-Residual          L2-NORM 
          0                 1           2             3    7     1       0.7938170510E-02       4    7    1         0.3195888509E+00      0.1202689248E+01
          0                 2           2             5    8     1       0.9701364602E-03       5    8    1         0.5291535033E-01      0.1488720800E+00
          0                 3           2             5    8     1       0.1875949599E-03       5    8    1         0.1008995421E-01      0.1895123866E-01
          0                 4           1             5    8     1       0.3600498735E-04       5    8    1         0.1957514932E-02      0.2940381644E-02

    ------------------------------------------------
       NWT REQUIRED            4 OUTER ITERATIONS 
       AND A TOTAL OF          7 INNER ITERATIONS.
    ------------------------------------------------

 NO OUTPUT CONTROL FOR STRESS PERIOD   41   TIME STEP   26
 
 SOLVING FOR HEAD 
                                                   Max.-Head-Change                         Max.-Flux-Residual
  Residual-Control   Outer-Iter.   Inner-Iter.     Column Row Layer    Maximum-Head-Change  Column Row Layer    Maximum-Flux-Residual          L2-NORM 
          0                 1           2             3    7     1       0.7903078147E-02       4    7    1         0.3178650624E+00      0.1197675276E+01
          0                 2           2             5    8     1       0.9626064079E-03       5    8    1         0.5250208335E-01      0.1481393625E+00
          0                 3           2             5    8     1       0.1861499182E-03       5    8    1         0.1001188987E-01      0.1883929535E-01
          0                 4           1             5    8     1       0.3572920341E-04       5    8    1         0.1942470867E-02      0.2921326277E-02

    ------------------------------------------------
       NWT REQUIRED            4 OUTER ITERATIONS 
       AND A TOTAL OF          7 INNER ITERATIONS.
    ------------------------------------------------

 NO OUTPUT CONTROL FOR STRESS PERIOD   41   TIME STEP   27
 
 SOLVING FOR HEAD 
                                                   Max.-Head-Change                         Max.-Flux-Residual
  Residual-Control   Outer-Iter.   Inner-Iter.     Column Row Layer    Maximum-Head-Change  Column Row Layer    Maximum-Flux-Residual          L2-NORM 
          0                 1           2             3    7     1       0.7868054399E-02       4    7    1         0.3161458987E+00      0.1200595574E+01
          0                 2           2             5    8     1       0.9549977283E-03       5    8    1         0.5207880029E-01      0.1479802190E+00
          0                 3           2             5    8     1       0.1846896767E-03       5    8    1         0.9933408637E-02      0.1874627644E-01
          0                 4           1             5    8     1       0.3545050518E-04       5    8    1         0.1927251818E-02      0.2902208394E-02

    ------------------------------------------------
       NWT REQUIRED            4 OUTER ITERATIONS 
       AND A TOTAL OF          7 INNER ITERATIONS.
    ------------------------------------------------

 NO OUTPUT CONTROL FOR STRESS PERIOD   41   TIME STEP   28
 
 SOLVING FOR HEAD 
                                                   Max.-Head-Change                         Max.-Flux-Residual
  Residual-Control   Outer-Iter.   Inner-Iter.     Column Row Layer    Maximum-Head-Change  Column Row Layer    Maximum-Flux-Residual          L2-NORM 
          0                 1           2             3    7     1       0.7833101661E-02       4    7    1         0.3144373635E+00      0.1193831792E+01
          0                 2           2             5    8     1       0.9476263348E-03       5    8    1         0.5167745374E-01      0.1471340513E+00
          0                 3           2             5    8     1       0.1832741990E-03       5    8    1         0.9856758224E-02      0.1863130294E-01
          0                 4           1             5    8     1       0.3518024069E-04       5    8    1         0.1912521369E-02      0.2883332919E-02

    ------------------------------------------------
       NWT REQUIRED            4 OUTER ITERATIONS 
       AND A TOTAL OF          7 INNER ITERATIONS.
    ------------------------------------------------

 NO OUTPUT CONTROL FOR STRESS PERIOD   41   TIME STEP   29
 
 SOLVING FOR HEAD 
                                                   Max.-Head-Change                         Max.-Flux-Residual
  Residual-Control   Outer-Iter.   Inner-Iter.     Column Row Layer    Maximum-Head-Change  Column Row Layer    Maximum-Flux-Residual          L2-NORM 
          0                 1           2             3    7     1       0.7798461535E-02       4    7    1         0.3127396998E+00      0.1187501323E+01
          0                 2           2             5    8     1       0.9405038316E-03       5    8    1         0.5128975723E-01      0.1463270408E+00
          0                 3           2             5    8     1       0.1819057366E-03       5    8    1         0.9782683703E-02      0.1851962888E-01
          0                 4           1             5    8     1       0.3491884201E-04       5    8    1         0.1898277517E-02      0.2864878333E-02

    ------------------------------------------------
       NWT REQUIRED            4 OUTER ITERATIONS 
       AND A TOTAL OF          7 INNER ITERATIONS.
    ------------------------------------------------

 NO OUTPUT CONTROL FOR STRESS PERIOD   41   TIME STEP   30



 STREAM LISTING     PERIOD     41   STEP       30

 LAYER ROW COL. STREAM  RCH.  FLOW INTO     FLOW TO   FLOW OUT OF   OVRLND.     DIRECT     STREAM       STREAM     STREAM     STREAM   STREAMBED  STREAMBED
                SEG.NO.  NO.  STRM. RCH.    AQUIFER    STRM. RCH.    RUNOFF     PRECIP       ET          HEAD       DEPTH      WIDTH   CONDCTNC.   GRADIENT

   1    1    1     1     1    2.3624E+01  2.3872E-01   2.3386E+01  0.000E+00  0.000E+00  0.000E+00  1.09421E+03  1.157E+00  1.276E+01  5.742E-02  1.386E+00
   1    2    2     1     2    2.3386E+01  3.6908E-01   2.3016E+01  0.000E+00  0.000E+00  0.000E+00  1.08921E+03  1.153E+00  1.270E+01  8.888E-02  1.384E+00
   1    3    3     1     3    2.3016E+01  3.1417E-01   2.2702E+01  0.000E+00  0.000E+00  0.000E+00  1.08357E+03  1.147E+00  1.263E+01  7.575E-02  1.382E+00
   1    3    4     1     4    2.2702E+01  2.8881E-01   2.2414E+01  0.000E+00  0.000E+00  0.000E+00  1.07855E+03  1.143E+00  1.256E+01  6.972E-02  1.381E+00
   1    4    5     2     1    2.0414E+01  3.1702E-01   2.0096E+01  0.000E+00  0.000E+00  0.000E+00  1.07300E+03  1.064E+00  1.200E+01  7.800E-02  1.355E+00
   1    5    6     2     2    2.0096E+01  2.4333E-01   1.9853E+01  0.000E+00  0.000E+00  0.000E+00  1.06756E+03  1.055E+00  1.200E+01  6.000E-02  1.352E+00
   1    6    6     2     3    1.9853E+01  2.4286E-01   1.9610E+01  0.000E+00  0.000E+00  0.000E+00  1.06284E+03  1.048E+00  1.200E+01  6.000E-02  1.349E+00
   1    7    6     2     4    1.9610E+01  2.4240E-01   1.9368E+01  0.000E+00  0.000E+00  0.000E+00  1.05812E+03  1.040E+00  1.200E+01  6.000E-02  1.347E+00
   1    8    6     2     5    1.9368E+01  2.4193E-01   1.9126E+01  0.000E+00  0.000E+00  0.000E+00  1.05339E+03  1.032E+00  1.200E+01  6.000E-02  1.344E+00
   1    3    5     3     1    2.0000E+00  2.8252E-01   1.7175E+00  0.000E+00  0.000E+00  0.000E+00  1.07555E+03  1.909E+00  9.636E+00  7.227E-02  1.955E+00
   1    3    6     3     2    1.7175E+00  2.4905E-01   1.4684E+00  0.000E+00  0.000E+00  0.000E+00  1.07264E+03  1.727E+00  8.909E+00  6.682E-02  1.864E+00
   1    3    7     3     3    1.4684E+00  1.9718E-01   1.2712E+00  0.000E+00  0.000E+00  0.000E+00  1.06987E+03  1.555E+00  8.218E+00  5.547E-02  1.777E+00
   1    4    8     3     4    1.2712E+00  2.2567E-01   1.0456E+00  0.000E+00  0.000E+00  0.000E+00  1.06682E+03  1.364E+00  7.455E+00  6.709E-02  1.682E+00
   1    5    8     3     5    1.0456E+00  1.5790E-01   8.8768E-01  0.000E+00  0.000E+00  0.000E+00  1.06362E+03  1.164E+00  6.655E+00  4.991E-02  1.582E+00
   1    6    8     3     6    8.8768E-01  5.5980E-02   8.3170E-01  0.000E+00  0.000E+00  0.000E+00  1.06158E+03  1.036E+00  6.145E+00  1.844E-02  1.518E+00
   1    5   10     4     1    1.0000E+01  9.0919E-02   9.9091E+00  0.000E+00  0.000E+00  0.000E+00  1.07836E+03  6.368E-01  1.000E+01  2.500E-02  1.212E+00
   1    5    9     4     2    9.9091E+00  1.8158E-01   9.7275E+00  0.000E+00  0.000E+00  0.000E+00  1.07154E+03  6.315E-01  1.000E+01  5.000E-02  1.211E+00
   1    6    8     4     3    9.7275E+00  1.2689E-01   9.6006E+00  0.000E+00  0.000E+00  0.000E+00  1.06381E+03  6.256E-01  1.000E+01  3.500E-02  1.209E+00
   1    6    8     5     1    1.0432E+01  2.2686E-01   1.0205E+01  0.000E+00  0.000E+00  0.000E+00  1.05868E+03  6.790E-01  1.542E+01  6.166E-02  1.226E+00
   1    7    7     5     2    1.0205E+01  2.7894E-01   9.9265E+00  0.000E+00  0.000E+00  0.000E+00  1.05417E+03  6.732E-01  1.519E+01  7.594E-02  1.224E+00
   1    8    7     5     3    9.9265E+00  1.9221E-01   9.7343E+00  0.000E+00  0.000E+00  0.000E+00  1.04992E+03  6.676E-01  1.497E+01  5.241E-02  1.223E+00
   1    8    6     5     4    9.7343E+00  1.3577E-01   9.5985E+00  0.000E+00  0.000E+00  0.000E+00  1.04691E+03  6.637E-01  1.482E+01  3.706E-02  1.221E+00
   1    9    6     6     1    2.8725E+01  2.5941E-01   2.8465E+01  0.000E+00  0.000E+00  0.000E+00  1.04405E+03  1.324E+00  1.200E+01  6.000E-02  1.441E+00
   1   10    7     6     2    2.8465E+01  2.5898E-01   2.8206E+01  0.000E+00  0.000E+00  0.000E+00  1.03950E+03  1.316E+00  1.200E+01  6.000E-02  1.439E+00
   1   11    7     6     3    2.8206E+01  2.5855E-01   2.7948E+01  0.000E+00  0.000E+00  0.000E+00  1.03495E+03  1.309E+00  1.200E+01  6.000E-02  1.436E+00
   1   12    7     6     4    2.7948E+01  2.5811E-01   2.7689E+01  0.000E+00  0.000E+00  0.000E+00  1.03039E+03  1.302E+00  1.200E+01  6.000E-02  1.434E+00
   1   13    7     6     5    2.7689E+01  1.8326E-02   2.7671E+01  0.000E+00  0.000E+00  0.000E+00  1.02721E+03  1.298E+00  1.200E+01  2.400E-02  2.545E-01
   1   14    9     7     1    1.5000E+02  1.4032E+00   1.4860E+02  0.000E+00  0.000E+00  0.000E+00  1.03987E+03  2.288E+00  5.529E+01  5.593E-01  8.363E-01
   1   13    8     7     2    1.4860E+02  2.0431E+00   1.4655E+02  0.000E+00  0.000E+00  0.000E+00  1.03478E+03  2.278E+00  5.525E+01  6.147E-01  1.108E+00
   1   13    7     7     3    1.4655E+02  1.8112E+00   1.4474E+02  0.000E+00  0.000E+00  0.000E+00  1.02969E+03  2.268E+00  5.521E+01  5.583E-01  1.081E+00
   1   13    6     8     1    1.7241E+02  1.2505E+00   1.7116E+02  0.000E+00  0.000E+00  0.000E+00  1.02484E+03  2.964E+00  4.298E+01  4.379E-01  9.518E-01
   1   13    5     8     2    1.7116E+02  4.6465E-01   1.7070E+02  0.000E+00  0.000E+00  0.000E+00  1.01858E+03  2.958E+00  4.289E+01  4.371E-01  3.543E-01
   1   13    4     8     3    1.7070E+02 -1.5517E+00   1.7225E+02  0.000E+00  0.000E+00  0.000E+00  1.01234E+03  2.962E+00  4.295E+01  4.376E+00 -1.182E-01
   1   13    3     8     4    1.7225E+02 -3.2483E+00   1.7550E+02  0.000E+00  0.000E+00  0.000E+00  1.00610E+03  2.977E+00  4.317E+01  4.399E+00 -2.461E-01
   1   13    2     8     5    1.7550E+02 -2.5360E+00   1.7803E+02  0.000E+00  0.000E+00  0.000E+00  9.99871E+02  2.996E+00  4.344E+01  4.426E+00 -1.910E-01
   1   13    1     8     6    1.7803E+02 -2.0008E+00   1.8004E+02  0.000E+00  0.000E+00  0.000E+00  9.94885E+02  3.010E+00  4.365E+01  2.669E+00 -2.499E-01
   1    8    6     9     1    0.0000E+00  0.0000E+00   0.0000E+00  0.000E+00  0.000E+00  0.000E+00  1.07875E+03  0.000E+00  4.000E+00  0.000E+00  1.000E+00
   1    8    5     9     2    0.0000E+00  0.0000E+00   0.0000E+00  0.000E+00  0.000E+00  0.000E+00  1.07825E+03  0.000E+00  4.000E+00  0.000E+00  1.000E+00





UNSATURATED ZONE PACKAGE VOLUMETRIC BUDGET FOR  TIME STEP    30 STRESS PERIOD   41
  ------------------------------------------------------------------------------



     CUMULATIVE VOLUMES      L**3       RATES FOR THIS TIME STEP      L**3/T
     ------------------                 ------------------------

           IN:                                      IN:
           ---                                      ---
        INFILTRATION =  1761644438.0951          INFILTRATION =           0.8475

          OUT:                                     OUT:
          ----                                     ----
              UZF ET =  1294360225.1264                UZF ET =           0.8475
        UZF RECHARGE =    87652310.6448          UZF RECHARGE =           0.8910

            IN - OUT =   379631902.3239              IN - OUT =          -0.8910

          STORAGE:                                 STORAGE:
          --------                                 --------
      STORAGE CHANGE =   379636469.2517        STORAGE CHANGE =          -0.8910

 PERCENT DISCREPANCY IS DIFFERENCE BETWEEN IN-OUT MINUS CHANGE IN STORAGE
 DIVIDED BY THE AVERAGE OF IN AND OUT TIMES 100

 PERCENT DISCREPANCY =          -0.00     PERCENT DISCREPANCY =          -0.00






1
  VOLUMETRIC BUDGET FOR AGRICULTURAL FIELDS AT  END OF TIME STEP   30, STRESS PERIOD  41
  ------------------------------------------------------------------------------

     CUMULATIVE VOLUMES      L**3       RATES FOR THIS TIME STEP      L**3/T
     ------------------                 ------------------------

           IN:                                      IN:
           ---                                      ---
               AG WELLS  =  1101049344.0000                 AG WELLS  =           0.0000
      DIVERSION SEGMENTS =   571557568.0000        DIVERSION SEGMENTS =           0.0000
       IRRIGATION PONDS  =           0.0000         IRRIGATION PONDS  =           0.0000
           GW IRRIGATION =           0.0000             GW IRRIGATION =           0.0000
           SW IRRIGATION =           0.0000             SW IRRIGATION =           0.0000
        SYSTEM LOSSES GW =           0.0000          SYSTEM LOSSES GW =           0.0000
        SYSTEM LOSSES SW =           0.0000          SYSTEM LOSSES SW =           0.0000

                TOTAL IN =  1672606976.0000                  TOTAL IN =           0.0000

          OUT:                                     OUT:
          ----                                     ----
               AG WELLS  =           0.0000                 AG WELLS  =           0.0000
      DIVERSION SEGMENTS =           0.0000        DIVERSION SEGMENTS =           0.0000
       IRRIGATION PONDS  =           0.0000         IRRIGATION PONDS  =           0.0000
           GW IRRIGATION =  1101049344.0000             GW IRRIGATION =           0.0000
           SW IRRIGATION =   571569024.0000             SW IRRIGATION =           0.0000
        SYSTEM LOSSES GW =           0.0000          SYSTEM LOSSES GW =           0.0000
        SYSTEM LOSSES SW =           0.0000          SYSTEM LOSSES SW =           0.0000

               TOTAL OUT =  1672618368.0000                 TOTAL OUT =           0.0000

                IN - OUT =      -11392.0000                  IN - OUT =           0.0000

     PERCENT DISCREPANCY =          -0.00         PERCENT DISCREPANCY =           0.00



1
  VOLUMETRIC BUDGET FOR ENTIRE MODEL AT END OF TIME STEP   30, STRESS PERIOD  41
  ------------------------------------------------------------------------------

     CUMULATIVE VOLUMES      L**3       RATES FOR THIS TIME STEP      L**3/T
     ------------------                 ------------------------

           IN:                                      IN:
           ---                                      ---
             STORAGE     =  1715480832.0000               STORAGE     =           2.2862
       CONSTANT HEAD     =           0.0000         CONSTANT HEAD     =           0.0000
     HEAD DEP BOUNDS     =    30400188.0000       HEAD DEP BOUNDS     =           0.2903
      STREAM LEAKAGE     =  1266358656.0000        STREAM LEAKAGE     =          12.9258
        UZF RECHARGE     =    87652312.0000          UZF RECHARGE     =           0.8910
               GW ET     =           0.0000                 GW ET     =           0.0000
     SURFACE LEAKAGE     =           0.0000       SURFACE LEAKAGE     =           0.0000
           AG WELLS      =           0.0000             AG WELLS      =           0.0000

                TOTAL IN =  3099891968.0000                  TOTAL IN =          16.3934

          OUT:                                     OUT:
          ----                                     ----
             STORAGE     =   939663808.0000               STORAGE     =           6.7654
       CONSTANT HEAD     =           0.0000         CONSTANT HEAD     =           0.0000
     HEAD DEP BOUNDS     =    30302266.0000       HEAD DEP BOUNDS     =           0.2901
      STREAM LEAKAGE     =  1028843904.0000        STREAM LEAKAGE     =           9.3368
        UZF RECHARGE     =           0.0000          UZF RECHARGE     =           0.0000
               GW ET     =           0.0000                 GW ET     =           0.0000
     SURFACE LEAKAGE     =           0.0000       SURFACE LEAKAGE     =           0.0000
           AG WELLS      =  1101049344.0000             AG WELLS      =           0.0000

               TOTAL OUT =  3099859456.0000                 TOTAL OUT =          16.3923

                IN - OUT =       32512.0000                  IN - OUT =       1.0967E-03

     PERCENT DISCREPANCY =           0.00         PERCENT DISCREPANCY =           0.01






         TIME SUMMARY AT END OF TIME STEP   30 IN STRESS PERIOD   41
                    SECONDS     MINUTES      HOURS       DAYS        YEARS
                    -----------------------------------------------------------
   TIME STEP LENGTH  87667.      1461.1      24.352      1.0147     2.77799E-03
 STRESS PERIOD TIME 2.63000E+06  43833.      730.56      30.440     8.33397E-02
         TOTAL TIME 1.05286E+08 1.75476E+06  29246.      1218.6      3.3363    
1
1
                            STRESS PERIOD NO.   42, LENGTH =   2630000.    
                            -----------------------------------------------

                              NUMBER OF TIME STEPS =    30

                               MULTIPLIER FOR DELT =     1.000

                            INITIAL TIME STEP SIZE =   87666.66    

 REUSING NON-PARAMETER GHB CELLS FROM LAST STRESS PERIOD

      2 GHB CELLS

 REUSING STREAM SEGMENT DATA FROM LAST STRESS PERIOD



            AREAL INFILTRATION RATE
 READING ON UNIT   19 WITH FORMAT: (FREE)              

            1           2           3           4           5           6           7           8           9          10
 ........................................................................................................................
   1   1.0000E-10  2.0000E-10   0.000       0.000       0.000       0.000       0.000       0.000       0.000       0.000    
   2   2.0000E-10  1.0000E-10  2.0000E-10   0.000       0.000      8.0000E-10  8.0000E-10  5.0000E-10   0.000       0.000    
   3    0.000      5.0000E-10  1.0000E-10  1.0000E-10  8.0000E-10  8.0000E-10  5.0000E-10  5.0000E-10   0.000       0.000    
   4   8.0000E-10  5.0000E-10  1.0000E-10  1.0000E-10  1.0000E-10  1.0000E-10  1.0000E-10  1.0000E-10  2.0000E-10   0.000    
   5   8.0000E-10  5.0000E-10  1.0000E-10  1.0000E-10  1.0000E-10  1.0000E-10  1.0000E-10  1.0000E-10  1.0000E-10  1.0000E-10
   6   8.0000E-10  5.0000E-10  5.0000E-10  2.0000E-10  2.0000E-10  1.0000E-10  1.0000E-10  1.0000E-10  1.0000E-10  5.0000E-10
   7   8.0000E-10  5.0000E-10  5.0000E-10  2.0000E-10  2.0000E-10  1.0000E-10  1.0000E-10  2.0000E-10  2.0000E-10   0.000    
   8    0.000      5.0000E-10  5.0000E-10  2.0000E-10  2.0000E-10  1.0000E-10  1.0000E-10  2.0000E-10  5.0000E-10   0.000    
   9    0.000      5.0000E-10  5.0000E-10  2.0000E-10  2.0000E-10  1.0000E-10  1.0000E-10  2.0000E-10  5.0000E-10   0.000    
  10    0.000      5.0000E-10  5.0000E-10  2.0000E-10  2.0000E-10  1.0000E-10  1.0000E-10  2.0000E-10  5.0000E-10  8.0000E-10
  11    0.000      1.0000E-10  1.0000E-10  1.0000E-10  1.0000E-10  1.0000E-10  1.0000E-10  2.0000E-10  5.0000E-10   0.000    
  12   1.0000E-10  1.0000E-10  1.0000E-10  1.0000E-10  1.0000E-10  1.0000E-10  1.0000E-10  1.0000E-10  2.0000E-10   0.000    
  13   1.0000E-10  1.0000E-10  2.0000E-10  2.0000E-10  2.0000E-10  2.0000E-10  2.0000E-10  1.0000E-10  1.0000E-10   0.000    
  14    0.000      2.0000E-10  5.0000E-10  5.0000E-10  5.0000E-10  5.0000E-10  5.0000E-10  2.0000E-10  1.0000E-10   0.000    
  15    0.000       0.000      8.0000E-10  8.0000E-10  8.0000E-10  8.0000E-10   0.000       0.000       0.000       0.000    

                  ET RATE =  5.000000E-08

 USING ET EXTINCTION DEPTH FROM PREVIOUS STRESS PERIOD. CURRENT PERIOD IS:      42

 USING EXTINCTION WATER CONTENT FROM PREVIOUS STRESS PERIOD. CURRENT PERIOD IS:      42

 USING AIR ENTRY PRESSURE FROM PREVIOUS STRESS PERIOD. CURRENT PERIOD IS:      42

 USING ROOT PRESSURE HEAD FROM PREVIOUS STRESS PERIOD. CURRENT PERIOD IS:      42

 USING ROOT ACTIVITY FROM PREVIOUS STRESS PERIOD. CURRENT PERIOD IS:      42

 PROCESSING AG STRESS PERIOD DATA

 READING AG STRESS PERIOD DATA

 READING IRRIGATION SEGMENT

 READING IRRIGATION WELL

 READING SUPPLEMENTAL WELL

 NO IRRPOND OR REUSING IRRPOND DATA FROM LAST STRESS PERIOD

 END PROCESSING AG STRESS PERIOD DATA OPTIONS
 
 SOLVING FOR HEAD 
                                                   Max.-Head-Change                         Max.-Flux-Residual
  Residual-Control   Outer-Iter.   Inner-Iter.     Column Row Layer    Maximum-Head-Change  Column Row Layer    Maximum-Flux-Residual          L2-NORM 
          0                 1           2             3    7     1       0.7764125211E-02       4    7    1         0.3110387164E+00      0.1256801048E+01
          0                 2           2             4    7     1      -0.2231104140E-01       5    6    1        -0.1206764515E+01      0.2953641879E+01
          0                 3           2             4    7     1       0.2190591762E-01       5    6    1         0.1224747999E+01      0.2928297307E+01
          0                 4           2             5    8     1       0.2799316177E-02       5    8    1         0.1613990629E+00      0.2073469142E+00
          0                 5           2             5    8     1       0.6531213721E-03       5    8    1         0.3771594332E-01      0.4559285870E-01
          0                 6           1             5    8     1       0.1521309739E-03       5    8    1         0.8796495858E-02      0.1014862038E-01
          0                 7           1             5    8     1       0.3539593847E-04       5    8    1         0.2048799505E-02      0.2282245597E-02

    ------------------------------------------------
       NWT REQUIRED            7 OUTER ITERATIONS 
       AND A TOTAL OF         12 INNER ITERATIONS.
    ------------------------------------------------

 NO OUTPUT CONTROL FOR STRESS PERIOD   42   TIME STEP    1
 
 SOLVING FOR HEAD 
                                                   Max.-Head-Change                         Max.-Flux-Residual
  Residual-Control   Outer-Iter.   Inner-Iter.     Column Row Layer    Maximum-Head-Change  Column Row Layer    Maximum-Flux-Residual          L2-NORM 
          0                 1           2             3    7     1       0.7729619368E-02       4    7    1         0.3093489249E+00      0.1171069450E+01
          0                 2           2             5    8     1       0.9268029965E-03       5    8    1         0.5054310976E-01      0.1444378433E+00
          0                 3           2             5    8     1       0.1792724983E-03       5    8    1         0.9640281822E-02      0.1829033133E-01
          0                 4           1             5    8     1       0.3441563059E-04       5    8    1         0.1870860606E-02      0.2828857488E-02

    ------------------------------------------------
       NWT REQUIRED            4 OUTER ITERATIONS 
       AND A TOTAL OF          7 INNER ITERATIONS.
    ------------------------------------------------

 NO OUTPUT CONTROL FOR STRESS PERIOD   42   TIME STEP    2
 
 SOLVING FOR HEAD 
                                                   Max.-Head-Change                         Max.-Flux-Residual
  Residual-Control   Outer-Iter.   Inner-Iter.     Column Row Layer    Maximum-Head-Change  Column Row Layer    Maximum-Flux-Residual          L2-NORM 
          0                 1           2             3    7     1       0.7695647447E-02       4    7    1         0.3076729734E+00      0.1166406667E+01
          0                 2           2             4    7     1      -0.2232049827E-01       5    6    1        -0.1207160937E+01      0.2958514873E+01
          0                 3           2             4    7     1       0.2192187491E-01       5    6    1         0.1225434754E+01      0.2930434565E+01
          0                 4           2             5    8     1       0.2781399913E-02       5    8    1         0.1603795868E+00      0.2055249426E+00
          0                 5           2             5    8     1       0.6488890046E-03       5    8    1         0.3747408144E-01      0.4521306452E-01
          0                 6           1             5    8     1       0.1511335713E-03       5    8    1         0.8739306994E-02      0.1006779413E-01
          0                 7           1             5    8     1       0.3516339579E-04       5    8    1         0.2035428949E-02      0.2264911423E-02

    ------------------------------------------------
       NWT REQUIRED            7 OUTER ITERATIONS 
       AND A TOTAL OF         12 INNER ITERATIONS.
    ------------------------------------------------

 NO OUTPUT CONTROL FOR STRESS PERIOD   42   TIME STEP    3
 
 SOLVING FOR HEAD 
                                                   Max.-Head-Change                         Max.-Flux-Residual
  Residual-Control   Outer-Iter.   Inner-Iter.     Column Row Layer    Maximum-Head-Change  Column Row Layer    Maximum-Flux-Residual          L2-NORM 
          0                 1           2             3    7     1       0.7661742412E-02       4    7    1         0.3060010326E+00      0.1160450762E+01
          0                 2           2             5    8     1       0.9138622431E-03       5    8    1         0.4983889199E-01      0.1430136702E+00
          0                 3           2             4    7     1      -0.2304963259E-01       5    6    1        -0.1239369871E+01      0.3047418831E+01
          0                 4           2             4    7     1       0.2176541349E-01       5    6    1         0.1218636705E+01      0.2910015323E+01
          0                 5           2             5    8     1       0.2779086296E-02       5    8    1         0.1602466382E+00      0.2052669864E+00
          0                 6           2             5    8     1       0.6483357171E-03       5    8    1         0.3744273319E-01      0.4516186273E-01
          0                 7           1             5    8     1       0.1510026629E-03       5    8    1         0.8731830318E-02      0.1005692252E-01
          0                 8           1             5    8     1       0.3513255833E-04       5    8    1         0.2033662467E-02      0.2262565839E-02

    ------------------------------------------------
       NWT REQUIRED            8 OUTER ITERATIONS 
       AND A TOTAL OF         14 INNER ITERATIONS.
    ------------------------------------------------

 NO OUTPUT CONTROL FOR STRESS PERIOD   42   TIME STEP    4
 
 SOLVING FOR HEAD 
                                                   Max.-Head-Change                         Max.-Flux-Residual
  Residual-Control   Outer-Iter.   Inner-Iter.     Column Row Layer    Maximum-Head-Change  Column Row Layer    Maximum-Flux-Residual          L2-NORM 
          0                 1           2             3    7     1       0.7627889285E-02       4    7    1         0.3043351035E+00      0.1155375460E+01
          0                 2           2             5    8     1       0.9076432495E-03       5    8    1         0.4950031731E-01      0.1423264585E+00
          0                 3           2             4    7     1      -0.2305037355E-01       5    6    1        -0.1239399873E+01      0.3047532888E+01
          0                 4           2             4    7     1       0.2177421378E-01       5    6    1         0.1219007024E+01      0.2911157058E+01
          0                 5           2             5    8     1       0.2770658174E-02       5    8    1         0.1597674657E+00      0.2043896926E+00
          0                 6           2             5    8     1       0.6463424817E-03       5    8    1         0.3732890309E-01      0.4497975088E-01
          0                 7           1             5    8     1       0.1505361062E-03       5    8    1         0.8705090497E-02      0.1001867803E-01
          0                 8           1             5    8     1       0.3502026616E-04       5    8    1         0.2027211498E-02      0.2254013671E-02

    ------------------------------------------------
       NWT REQUIRED            8 OUTER ITERATIONS 
       AND A TOTAL OF         14 INNER ITERATIONS.
    ------------------------------------------------

 NO OUTPUT CONTROL FOR STRESS PERIOD   42   TIME STEP    5
 
 SOLVING FOR HEAD 
                                                   Max.-Head-Change                         Max.-Flux-Residual
  Residual-Control   Outer-Iter.   Inner-Iter.     Column Row Layer    Maximum-Head-Change  Column Row Layer    Maximum-Flux-Residual          L2-NORM 
          0                 1           2             3    7     1       0.7594331254E-02       4    7    1         0.3026758087E+00      0.1151013051E+01
          0                 2           2             5    8     1       0.9015894194E-03       5    8    1         0.4917086887E-01      0.1416982838E+00
          0                 3           2             4    7     1      -0.2305110892E-01       5    6    1        -0.1239429340E+01      0.3047644325E+01
          0                 4           2             4    7     1       0.2178297299E-01       5    6    1         0.1219371592E+01      0.2912302337E+01
          0                 5           2             5    8     1       0.2762453126E-02       5    8    1         0.1593012019E+00      0.2035276435E+00
          0                 6           2             5    8     1       0.6444039142E-03       5    8    1         0.3721823557E-01      0.4480127382E-01
          0                 7           1             5    8     1       0.1500766381E-03       5    8    1         0.8678768855E-02      0.9980625189E-02
          0                 8           1             5    8     1       0.3491521244E-04       5    8    1         0.2021173538E-02      0.2246114241E-02

    ------------------------------------------------
       NWT REQUIRED            8 OUTER ITERATIONS 
       AND A TOTAL OF         14 INNER ITERATIONS.
    ------------------------------------------------

 NO OUTPUT CONTROL FOR STRESS PERIOD   42   TIME STEP    6
 
 SOLVING FOR HEAD 
                                                   Max.-Head-Change                         Max.-Flux-Residual
  Residual-Control   Outer-Iter.   Inner-Iter.     Column Row Layer    Maximum-Head-Change  Column Row Layer    Maximum-Flux-Residual          L2-NORM 
          0                 1           2             3    7     1       0.7560821425E-02       4    7    1         0.3010308535E+00      0.1147208800E+01
          0                 2           2             5    8     1       0.8956398266E-03       5    8    1         0.4884710490E-01      0.1411165097E+00
          0                 3           2             4    7     1      -0.2305183802E-01       5    6    1        -0.1239458570E+01      0.3047753755E+01
          0                 4           2             4    7     1       0.2179165528E-01       5    6    1         0.1219733010E+01      0.2913428696E+01
          0                 5           2             5    8     1       0.2754395260E-02       5    8    1         0.1588433407E+00      0.2026779827E+00
          0                 6           2             5    8     1       0.6424943890E-03       5    8    1         0.3710923657E-01      0.4462485561E-01
          0                 7           1             5    8     1       0.1496267801E-03       5    8    1         0.8652997712E-02      0.9943344584E-02
          0                 8           1             5    8     1       0.3480960347E-04       5    8    1         0.2015106245E-02      0.2238083822E-02

    ------------------------------------------------
       NWT REQUIRED            8 OUTER ITERATIONS 
       AND A TOTAL OF         14 INNER ITERATIONS.
    ------------------------------------------------

 NO OUTPUT CONTROL FOR STRESS PERIOD   42   TIME STEP    7
 
 SOLVING FOR HEAD 
                                                   Max.-Head-Change                         Max.-Flux-Residual
  Residual-Control   Outer-Iter.   Inner-Iter.     Column Row Layer    Maximum-Head-Change  Column Row Layer    Maximum-Flux-Residual          L2-NORM 
          0                 1           2             3    7     1       0.7527604749E-02       4    7    1         0.2994002633E+00      0.1143845699E+01
          0                 2           2             5    8     1       0.8898425727E-03       5    8    1         0.4853171125E-01      0.1405727563E+00
          0                 3           2             4    7     1      -0.2305256103E-01       5    6    1        -0.1239487556E+01      0.3047860888E+01
          0                 4           2             4    7     1       0.2180026185E-01       5    6    1         0.1220091269E+01      0.2914542501E+01
          0                 5           2             5    8     1       0.2746539752E-02       5    8    1         0.1583971603E+00      0.2018418276E+00
          0                 6           2             5    8     1       0.6406376401E-03       5    8    1         0.3700328129E-01      0.4445214291E-01
          0                 7           1             5    8     1       0.1491920414E-03       5    8    1         0.8628096481E-02      0.9907202130E-02
          0                 8           1             5    8     1       0.3470471732E-04       5    8    1         0.2009083766E-02      0.2230007249E-02

    ------------------------------------------------
       NWT REQUIRED            8 OUTER ITERATIONS 
       AND A TOTAL OF         14 INNER ITERATIONS.
    ------------------------------------------------

 NO OUTPUT CONTROL FOR STRESS PERIOD   42   TIME STEP    8
 
 SOLVING FOR HEAD 
                                                   Max.-Head-Change                         Max.-Flux-Residual
  Residual-Control   Outer-Iter.   Inner-Iter.     Column Row Layer    Maximum-Head-Change  Column Row Layer    Maximum-Flux-Residual          L2-NORM 
          0                 1           2             3    7     1       0.7494674341E-02       4    7    1         0.2977766190E+00      0.1140838806E+01
          0                 2           2             5    8     1       0.8841905627E-03       5    8    1         0.4822431001E-01      0.1400609363E+00
          0                 3           2             4    7     1      -0.2305327793E-01       5    6    1        -0.1239516018E+01      0.3047965710E+01
          0                 4           2             4    7     1       0.2180882307E-01       5    6    1         0.1220444003E+01      0.2915627842E+01
          0                 5           2             5    8     1       0.2738885231E-02       5    8    1         0.1579625515E+00      0.2010205984E+00
          0                 6           2             5    8     1       0.6388236277E-03       5    8    1         0.3689979621E-01      0.4428228716E-01
          0                 7           1             5    8     1       0.1487630316E-03       5    8    1         0.8603532394E-02      0.9871298244E-02
          0                 8           1             5    8     1       0.3460535759E-04       5    8    1         0.2003376610E-02      0.2222692754E-02

    ------------------------------------------------
       NWT REQUIRED            8 OUTER ITERATIONS 
       AND A TOTAL OF         14 INNER ITERATIONS.
    ------------------------------------------------

 NO OUTPUT CONTROL FOR STRESS PERIOD   42   TIME STEP    9
 
 SOLVING FOR HEAD 
                                                   Max.-Head-Change                         Max.-Flux-Residual
  Residual-Control   Outer-Iter.   Inner-Iter.     Column Row Layer    Maximum-Head-Change  Column Row Layer    Maximum-Flux-Residual          L2-NORM 
          0                 1           2             3    7     1       0.7461543459E-02       4    7    1         0.2961606044E+00      0.1138099392E+01
          0                 2           2             5    8     1       0.8786504315E-03       5    8    1         0.4792300539E-01      0.1395730231E+00
          0                 3           2             4    7     1      -0.2305399353E-01       5    6    1        -0.1239544235E+01      0.3048069218E+01
          0                 4           2             4    7     1       0.2181734302E-01       5    6    1         0.1220791675E+01      0.2916701134E+01
          0                 5           2             5    8     1       0.2731382321E-02       5    8    1         0.1575366144E+00      0.2002111951E+00
          0                 6           2             5    8     1       0.6370466628E-03       5    8    1         0.3679843613E-01      0.4411519123E-01
          0                 7           1             5    8     1       0.1483441121E-03       5    8    1         0.8579547305E-02      0.9836032220E-02
          0                 8           1             5    8     1       0.3450836243E-04       5    8    1         0.1997805503E-02      0.2215010123E-02

    ------------------------------------------------
       NWT REQUIRED            8 OUTER ITERATIONS 
       AND A TOTAL OF         14 INNER ITERATIONS.
    ------------------------------------------------

 NO OUTPUT CONTROL FOR STRESS PERIOD   42   TIME STEP   10
 
 SOLVING FOR HEAD 
                                                   Max.-Head-Change                         Max.-Flux-Residual
  Residual-Control   Outer-Iter.   Inner-Iter.     Column Row Layer    Maximum-Head-Change  Column Row Layer    Maximum-Flux-Residual          L2-NORM 
          0                 1           2             3    7     1       0.7428942405E-02       4    7    1         0.2945524972E+00      0.1135560532E+01
          0                 2           2             5    8     1       0.8732141869E-03       5    8    1         0.4762741511E-01      0.1391042184E+00
          0                 3           2             4    7     1      -0.2305470478E-01       5    6    1        -0.1239572203E+01      0.3048170695E+01
          0                 4           2             4    7     1       0.2182581751E-01       5    6    1         0.1221136532E+01      0.2917763231E+01
          0                 5           2             5    8     1       0.2724029011E-02       5    8    1         0.1571192983E+00      0.1994137030E+00
          0                 6           2             5    8     1       0.6352989937E-03       5    8    1         0.3669877392E-01      0.4395001226E-01
          0                 7           1             5    8     1       0.1479376147E-03       5    8    1         0.8556274456E-02      0.9801882665E-02
          0                 8           1             5    8     1       0.3440584749E-04       5    8    1         0.1991925082E-02      0.2206939896E-02

    ------------------------------------------------
       NWT REQUIRED            8 OUTER ITERATIONS 
       AND A TOTAL OF         14 INNER ITERATIONS.
    ------------------------------------------------

 NO OUTPUT CONTROL FOR STRESS PERIOD   42   TIME STEP   11
 
 SOLVING FOR HEAD 
                                                   Max.-Head-Change                         Max.-Flux-Residual
  Residual-Control   Outer-Iter.   Inner-Iter.     Column Row Layer    Maximum-Head-Change  Column Row Layer    Maximum-Flux-Residual          L2-NORM 
          0                 1           2             3    7     1       0.7396379108E-02       4    7    1         0.2929600309E+00      0.1133181178E+01
          0                 2           2             5    8     1       0.8679077728E-03       5    8    1         0.4733893044E-01      0.1386518938E+00
          0                 3           2             4    7     1      -0.2305540734E-01       5    6    1        -0.1239599699E+01      0.3048270036E+01
          0                 4           2             4    7     1       0.2183420677E-01       5    6    1         0.1221476264E+01      0.2918810503E+01
          0                 5           2             5    8     1       0.2716837870E-02       5    8    1         0.1567112757E+00      0.1986283007E+00
          0                 6           2             5    8     1       0.6336020294E-03       5    8    1         0.3660201421E-01      0.4378898967E-01
          0                 7           1             5    8     1       0.1475303791E-03       5    8    1         0.8532970348E-02      0.9767233318E-02
          0                 8           1             5    8     1       0.3431717077E-04       5    8    1         0.1986828954E-02      0.2200246720E-02

    ------------------------------------------------
       NWT REQUIRED            8 OUTER ITERATIONS 
       AND A TOTAL OF         14 INNER ITERATIONS.
    ------------------------------------------------

 NO OUTPUT CONTROL FOR STRESS PERIOD   42   TIME STEP   12
 
 SOLVING FOR HEAD 
                                                   Max.-Head-Change                         Max.-Flux-Residual
  Residual-Control   Outer-Iter.   Inner-Iter.     Column Row Layer    Maximum-Head-Change  Column Row Layer    Maximum-Flux-Residual          L2-NORM 
          0                 1           2             3    7     1       0.7363855973E-02       4    7    1         0.2913831156E+00      0.1130917191E+01
          0                 2           2             5    8     1       0.8626952526E-03       5    8    1         0.4705560323E-01      0.1382120407E+00
          0                 3           2             4    7     1      -0.2305610338E-01       5    6    1        -0.1239626830E+01      0.3048367757E+01
          0                 4           2             4    7     1       0.2184251465E-01       5    6    1         0.1221811125E+01      0.2919845328E+01
          0                 5           2             5    8     1       0.2709788901E-02       5    8    1         0.1563114310E+00      0.1978558604E+00
          0                 6           2             5    8     1       0.6319242585E-03       5    8    1         0.3650637607E-01      0.4362907296E-01
          0                 7           1             5    8     1       0.1471416177E-03       5    8    1         0.8510718920E-02      0.9734395339E-02
          0                 8           1             5    8     1       0.3421879765E-04       5    8    1         0.1981187512E-02      0.2192461009E-02

    ------------------------------------------------
       NWT REQUIRED            8 OUTER ITERATIONS 
       AND A TOTAL OF         14 INNER ITERATIONS.
    ------------------------------------------------

 NO OUTPUT CONTROL FOR STRESS PERIOD   42   TIME STEP   13
 
 SOLVING FOR HEAD 
                                                   Max.-Head-Change                         Max.-Flux-Residual
  Residual-Control   Outer-Iter.   Inner-Iter.     Column Row Layer    Maximum-Head-Change  Column Row Layer    Maximum-Flux-Residual          L2-NORM 
          0                 1           2             3    7     1       0.7331616395E-02       4    7    1         0.2898069113E+00      0.1128731340E+01
          0                 2           2             5    8     1       0.8576004961E-03       5    8    1         0.4677871208E-01      0.1377906645E+00
          0                 3           2             4    7     1      -0.2305679580E-01       5    6    1        -0.1239653657E+01      0.3048463503E+01
          0                 4           2             4    7     1       0.2185080890E-01       5    6    1         0.1222143418E+01      0.2920872475E+01
          0                 5           2             5    8     1       0.2702889056E-02       5    8    1         0.1559201499E+00      0.1970936141E+00
          0                 6           2             5    8     1       0.6302926508E-03       5    8    1         0.3641338428E-01      0.4347274307E-01
          0                 7           1             5    8     1       0.1467496297E-03       5    8    1         0.8488295354E-02      0.9700788074E-02
          0                 8           1             5    8     1       0.3413367247E-04       5    8    1         0.1976296762E-02      0.2186005050E-02

    ------------------------------------------------
       NWT REQUIRED            8 OUTER ITERATIONS 
       AND A TOTAL OF         14 INNER ITERATIONS.
    ------------------------------------------------

 NO OUTPUT CONTROL FOR STRESS PERIOD   42   TIME STEP   14
 
 SOLVING FOR HEAD 
                                                   Max.-Head-Change                         Max.-Flux-Residual
  Residual-Control   Outer-Iter.   Inner-Iter.     Column Row Layer    Maximum-Head-Change  Column Row Layer    Maximum-Flux-Residual          L2-NORM 
          0                 1           2             3    7     1       0.7299413226E-02       4    7    1         0.2882542407E+00      0.1126585893E+01
          0                 2           2             5    8     1       0.8525908074E-03       5    8    1         0.4650649453E-01      0.1373577688E+00
          0                 3           2             4    7     1      -0.2305748129E-01       5    6    1        -0.1239680414E+01      0.3048558292E+01
          0                 4           2             4    7     1       0.2185898710E-01       5    6    1         0.1222473429E+01      0.2921885234E+01
          0                 5           2             5    8     1       0.2696106308E-02       5    8    1         0.1555355819E+00      0.1963416403E+00
          0                 6           2             5    8     1       0.6286871098E-03       5    8    1         0.3632189223E-01      0.4331846563E-01
          0                 7           1             5    8     1       0.1463707635E-03       5    8    1         0.8466620448E-02      0.9668404685E-02
          0                 8           1             5    8     1       0.3404461174E-04       5    8    1         0.1971185742E-02      0.2179069679E-02

    ------------------------------------------------
       NWT REQUIRED            8 OUTER ITERATIONS 
       AND A TOTAL OF         14 INNER ITERATIONS.
    ------------------------------------------------

 NO OUTPUT CONTROL FOR STRESS PERIOD   42   TIME STEP   15
 
 SOLVING FOR HEAD 
                                                   Max.-Head-Change                         Max.-Flux-Residual
  Residual-Control   Outer-Iter.   Inner-Iter.     Column Row Layer    Maximum-Head-Change  Column Row Layer    Maximum-Flux-Residual          L2-NORM 
          0                 1           2             3    7     1       0.7267489233E-02       4    7    1         0.2867023065E+00      0.1124446448E+01
          0                 2           2             5    8     1       0.8476625788E-03       5    8    1         0.4623869865E-01      0.1369369200E+00
          0                 3           2             4    7     1      -0.2305816585E-01       5    6    1        -0.1239706695E+01      0.3048651687E+01
          0                 4           2             4    7     1       0.2186715382E-01       5    6    1         0.1222796516E+01      0.2922886460E+01
          0                 5           2             5    8     1       0.2689436325E-02       5    8    1         0.1551574605E+00      0.1956000167E+00
          0                 6           2             5    8     1       0.6271052822E-03       5    8    1         0.3623176279E-01      0.4316605455E-01
          0                 7           1             5    8     1       0.1459974472E-03       5    8    1         0.8445265207E-02      0.9636427236E-02
          0                 8           1             5    8     1       0.3395684696E-04       5    8    1         0.1966149497E-02      0.2172223816E-02

    ------------------------------------------------
       NWT REQUIRED            8 OUTER ITERATIONS 
       AND A TOTAL OF         14 INNER ITERATIONS.
    ------------------------------------------------

 NO OUTPUT CONTROL FOR STRESS PERIOD   42   TIME STEP   16
 
 SOLVING FOR HEAD 
                                                   Max.-Head-Change                         Max.-Flux-Residual
  Residual-Control   Outer-Iter.   Inner-Iter.     Column Row Layer    Maximum-Head-Change  Column Row Layer    Maximum-Flux-Residual          L2-NORM 
          0                 1           2             3    7     1       0.7235840827E-02       4    7    1         0.2851666025E+00      0.1122327048E+01
          0                 2           2             5    8     1       0.8428396540E-03       5    8    1         0.4597666786E-01      0.1365219339E+00
          0                 3           2             4    7     1      -0.2305884088E-01       5    6    1        -0.1239732820E+01      0.3048743131E+01
          0                 4           2             4    7     1       0.2187523432E-01       5    6    1         0.1223119690E+01      0.2923876448E+01
          0                 5           2             5    8     1       0.2682916321E-02       5    8    1         0.1547879230E+00      0.1948703660E+00
          0                 6           2             5    8     1       0.6255516639E-03       5    8    1         0.3614325930E-01      0.4301544208E-01
          0                 7           1             5    8     1       0.1456377406E-03       5    8    1         0.8424687403E-02      0.9605634855E-02
          0                 8           1             5    8     1       0.3386525810E-04       5    8    1         0.1960899554E-02      0.2164896875E-02

    ------------------------------------------------
       NWT REQUIRED            8 OUTER ITERATIONS 
       AND A TOTAL OF         14 INNER ITERATIONS.
    ------------------------------------------------

 NO OUTPUT CONTROL FOR STRESS PERIOD   42   TIME STEP   17
 
 SOLVING FOR HEAD 
                                                   Max.-Head-Change                         Max.-Flux-Residual
  Residual-Control   Outer-Iter.   Inner-Iter.     Column Row Layer    Maximum-Head-Change  Column Row Layer    Maximum-Flux-Residual          L2-NORM 
          0                 1           2             3    7     1       0.7204224151E-02       4    7    1         0.2836470015E+00      0.1120219625E+01
          0                 2           2             5    8     1       0.8381160835E-03       5    8    1         0.4572009231E-01      0.1361111600E+00
          0                 3           2             4    7     1      -0.2305950905E-01       5    6    1        -0.1239758441E+01      0.3048833150E+01
          0                 4           2             4    7     1       0.2188322863E-01       5    6    1         0.1223435936E+01      0.2924852914E+01
          0                 5           2             5    8     1       0.2676520290E-02       5    8    1         0.1544255365E+00      0.1941510204E+00
          0                 6           2             5    8     1       0.6240410160E-03       5    8    1         0.3605722071E-01      0.4286867565E-01
          0                 7           1             5    8     1       0.1452740547E-03       5    8    1         0.8403894340E-02      0.9574111006E-02
          0                 8           1             5    8     1       0.3378674003E-04       5    8    1         0.1956390133E-02      0.2158896958E-02

    ------------------------------------------------
       NWT REQUIRED            8 OUTER ITERATIONS 
       AND A TOTAL OF         14 INNER ITERATIONS.
    ------------------------------------------------

 NO OUTPUT CONTROL FOR STRESS PERIOD   42   TIME STEP   18
 
 SOLVING FOR HEAD 
                                                   Max.-Head-Change                         Max.-Flux-Residual
  Residual-Control   Outer-Iter.   Inner-Iter.     Column Row Layer    Maximum-Head-Change  Column Row Layer    Maximum-Flux-Residual          L2-NORM 
          0                 1           2             3    7     1       0.7172639992E-02       4    7    1         0.2821358711E+00      0.1118105475E+01
          0                 2           2             5    8     1       0.8334618887E-03       5    8    1         0.4546727744E-01      0.1357030048E+00
          0                 3           2             4    7     1      -0.2306017300E-01       5    6    1        -0.1239783897E+01      0.3048921792E+01
          0                 4           2             4    7     1       0.2189117537E-01       5    6    1         0.1223750235E+01      0.2925819887E+01
          0                 5           2             5    8     1       0.2670224127E-02       5    8    1         0.1540688166E+00      0.1934416177E+00
          0                 6           2             5    8     1       0.6225469960E-03       5    8    1         0.3597213400E-01      0.4272317927E-01
          0                 7           1             5    8     1       0.1449213013E-03       5    8    1         0.8383722911E-02      0.9543640359E-02
          0                 8           1             5    8     1       0.3370377931E-04       5    8    1         0.1951630998E-02      0.2152383792E-02

    ------------------------------------------------
       NWT REQUIRED            8 OUTER ITERATIONS 
       AND A TOTAL OF         14 INNER ITERATIONS.
    ------------------------------------------------

 NO OUTPUT CONTROL FOR STRESS PERIOD   42   TIME STEP   19
 
 SOLVING FOR HEAD 
                                                   Max.-Head-Change                         Max.-Flux-Residual
  Residual-Control   Outer-Iter.   Inner-Iter.     Column Row Layer    Maximum-Head-Change  Column Row Layer    Maximum-Flux-Residual          L2-NORM 
          0                 1           2             3    7     1       0.7141330616E-02       4    7    1         0.2806336298E+00      0.1115973257E+01
          0                 2           2             5    8     1       0.8288999240E-03       5    8    1         0.4521951435E-01      0.1352958218E+00
          0                 3           2             4    7     1      -0.2306083331E-01       5    6    1        -0.1239809215E+01      0.3049009570E+01
          0                 4           2             4    7     1       0.2189907443E-01       5    6    1         0.1224062567E+01      0.2926777164E+01
          0                 5           2             5    8     1       0.2664053387E-02       5    8    1         0.1537193197E+00      0.1927414307E+00
          0                 6           2             5    8     1       0.6210822705E-03       5    8    1         0.3588873751E-01      0.4257972648E-01
          0                 7           1             5    8     1       0.1445753770E-03       5    8    1         0.8363946113E-02      0.9513625950E-02
          0                 8           1             5    8     1       0.3362240791E-04       5    8    1         0.1946963829E-02      0.2145973274E-02

    ------------------------------------------------
       NWT REQUIRED            8 OUTER ITERATIONS 
       AND A TOTAL OF         14 INNER ITERATIONS.
    ------------------------------------------------

 NO OUTPUT CONTROL FOR STRESS PERIOD   42   TIME STEP   20
 
 SOLVING FOR HEAD 
                                                   Max.-Head-Change                         Max.-Flux-Residual
  Residual-Control   Outer-Iter.   Inner-Iter.     Column Row Layer    Maximum-Head-Change  Column Row Layer    Maximum-Flux-Residual          L2-NORM 
          0                 1           2             3    7     1       0.7110293221E-02       4    7    1         0.2791476289E+00      0.1113830693E+01
          0                 2           2             5    8     1       0.8243994036E-03       5    8    1         0.4497508817E-01      0.1348913353E+00
          0                 3           2             4    7     1      -0.2306148459E-01       5    6    1        -0.1239834091E+01      0.3049095567E+01
          0                 4           2             4    7     1       0.2190688596E-01       5    6    1         0.1224370472E+01      0.2927722846E+01
          0                 5           2             5    8     1       0.2657965976E-02       5    8    1         0.1533745615E+00      0.1920504291E+00
          0                 6           2             5    8     1       0.6196372461E-03       5    8    1         0.3580646639E-01      0.4243816881E-01
          0                 7           1             5    8     1       0.1442340913E-03       5    8    1         0.8344435184E-02      0.9484009388E-02
          0                 8           1             5    8     1       0.3354212490E-04       5    8    1         0.1942359207E-02      0.2139648289E-02

    ------------------------------------------------
       NWT REQUIRED            8 OUTER ITERATIONS 
       AND A TOTAL OF         14 INNER ITERATIONS.
    ------------------------------------------------

 NO OUTPUT CONTROL FOR STRESS PERIOD   42   TIME STEP   21
 
 SOLVING FOR HEAD 
                                                   Max.-Head-Change                         Max.-Flux-Residual
  Residual-Control   Outer-Iter.   Inner-Iter.     Column Row Layer    Maximum-Head-Change  Column Row Layer    Maximum-Flux-Residual          L2-NORM 
          0                 1           2             3    7     1       0.7079282184E-02       4    7    1         0.2776703910E+00      0.1111664640E+01
          0                 2           2             5    8     1       0.8199587381E-03       5    8    1         0.4473393724E-01      0.1344875112E+00
          0                 3           2             4    7     1      -0.2306213418E-01       5    6    1        -0.1239858789E+01      0.3049180856E+01
          0                 4           2             4    7     1       0.2191465226E-01       5    6    1         0.1224674422E+01      0.2928659766E+01
          0                 5           2             5    8     1       0.2651966702E-02       5    8    1         0.1530348209E+00      0.1913681798E+00
          0                 6           2             5    8     1       0.6182031998E-03       5    8    1         0.3572482909E-01      0.4229731470E-01
          0                 7           1             5    8     1       0.1439052015E-03       5    8    1         0.8325628408E-02      0.9455630516E-02
          0                 8           1             5    8     1       0.3345353066E-04       5    8    1         0.1937286233E-02      0.2132412122E-02

    ------------------------------------------------
       NWT REQUIRED            8 OUTER ITERATIONS 
       AND A TOTAL OF         14 INNER ITERATIONS.
    ------------------------------------------------

 NO OUTPUT CONTROL FOR STRESS PERIOD   42   TIME STEP   22
 
 SOLVING FOR HEAD 
                                                   Max.-Head-Change                         Max.-Flux-Residual
  Residual-Control   Outer-Iter.   Inner-Iter.     Column Row Layer    Maximum-Head-Change  Column Row Layer    Maximum-Flux-Residual          L2-NORM 
          0                 1           2             3    7     1       0.7048540831E-02       4    7    1         0.2762093094E+00      0.1109489018E+01
          0                 2           2             5    8     1       0.8156299505E-03       5    8    1         0.4449889074E-01      0.1340867098E+00
          0                 3           2             4    7     1      -0.2306277684E-01       5    6    1        -0.1239883186E+01      0.3049264794E+01
          0                 4           2             4    7     1       0.2192233285E-01       5    6    1         0.1224974378E+01      0.2929583066E+01
          0                 5           2             5    8     1       0.2646108515E-02       5    8    1         0.1527031880E+00      0.1906972678E+00
          0                 6           2             5    8     1       0.6168190414E-03       5    8    1         0.3564604743E-01      0.4216086207E-01
          0                 7           1             5    8     1       0.1435683550E-03       5    8    1         0.8306382008E-02      0.9426035105E-02
          0                 8           1             5    8     1       0.3338549395E-04       5    8    1         0.1933376845E-02      0.2127273756E-02

    ------------------------------------------------
       NWT REQUIRED            8 OUTER ITERATIONS 
       AND A TOTAL OF         14 INNER ITERATIONS.
    ------------------------------------------------

 NO OUTPUT CONTROL FOR STRESS PERIOD   42   TIME STEP   23
 
 SOLVING FOR HEAD 
                                                   Max.-Head-Change                         Max.-Flux-Residual
  Residual-Control   Outer-Iter.   Inner-Iter.     Column Row Layer    Maximum-Head-Change  Column Row Layer    Maximum-Flux-Residual          L2-NORM 
          0                 1           2             3    7     1       0.7017823699E-02       4    7    1         0.2747570055E+00      0.1107282934E+01
          0                 2           2             5    8     1       0.8113259063E-03       5    8    1         0.4426517512E-01      0.1336852689E+00
          0                 3           2             4    7     1      -0.2306341380E-01       5    6    1        -0.1239907353E+01      0.3049347749E+01
          0                 4           2             4    7     1       0.2192996475E-01       5    6    1         0.1225272612E+01      0.2930500264E+01
          0                 5           2             5    8     1       0.2640284653E-02       5    8    1         0.1523734730E+00      0.1900312183E+00
          0                 6           2             5    8     1       0.6154389165E-03       5    8    1         0.3556749232E-01      0.4202490091E-01
          0                 7           1             5    8     1       0.1432423112E-03       5    8    1         0.8287746469E-02      0.9397617505E-02
          0                 8           1             5    8     1       0.3330737480E-04       5    8    1         0.1928898249E-02      0.2121064033E-02

    ------------------------------------------------
       NWT REQUIRED            8 OUTER ITERATIONS 
       AND A TOTAL OF         14 INNER ITERATIONS.
    ------------------------------------------------

 NO OUTPUT CONTROL FOR STRESS PERIOD   42   TIME STEP   24
 
 SOLVING FOR HEAD 
                                                   Max.-Head-Change                         Max.-Flux-Residual
  Residual-Control   Outer-Iter.   Inner-Iter.     Column Row Layer    Maximum-Head-Change  Column Row Layer    Maximum-Flux-Residual          L2-NORM 
          0                 1           2             3    7     1       0.6987376884E-02       4    7    1         0.2733207331E+00      0.1105052965E+01
          0                 2           2             5    8     1       0.8071270447E-03       5    8    1         0.4403722379E-01      0.1332855423E+00
          0                 3           2             4    7     1      -0.2306404360E-01       5    6    1        -0.1239931357E+01      0.3049429117E+01
          0                 4           2             4    7     1       0.2193751292E-01       5    6    1         0.1225569193E+01      0.2931405948E+01
          0                 5           2             5    8     1       0.2634607759E-02       5    8    1         0.1520522118E+00      0.1893768257E+00
          0                 6           2             5    8     1       0.6140903458E-03       5    8    1         0.3549075921E-01      0.4189115644E-01
          0                 7           1             5    8     1       0.1429236189E-03       5    8    1         0.8269535961E-02      0.9369693335E-02
          0                 8           1             5    8     1       0.3323377617E-04       5    8    1         0.1924677551E-02      0.2115255835E-02

    ------------------------------------------------
       NWT REQUIRED            8 OUTER ITERATIONS 
       AND A TOTAL OF         14 INNER ITERATIONS.
    ------------------------------------------------

 NO OUTPUT CONTROL FOR STRESS PERIOD   42   TIME STEP   25
 
 SOLVING FOR HEAD 
                                                   Max.-Head-Change                         Max.-Flux-Residual
  Residual-Control   Outer-Iter.   Inner-Iter.     Column Row Layer    Maximum-Head-Change  Column Row Layer    Maximum-Flux-Residual          L2-NORM 
          0                 1           2             3    7     1       0.6956953320E-02       4    7    1         0.2718929814E+00      0.1102806189E+01
          0                 2           2             5    8     1       0.8029486636E-03       5    8    1         0.4381036358E-01      0.1328866068E+00
          0                 3           2             4    7     1      -0.2306466971E-01       5    6    1        -0.1239954929E+01      0.3049510083E+01
          0                 4           2             4    7     1       0.2194501393E-01       5    6    1         0.1225859638E+01      0.2932302619E+01
          0                 5           2             5    8     1       0.2628957673E-02       5    8    1         0.1517324123E+00      0.1887285019E+00
          0                 6           2             5    8     1       0.6127483648E-03       5    8    1         0.3541439072E-01      0.4175856732E-01
          0                 7           1             5    8     1       0.1426065246E-03       5    8    1         0.8251414865E-02      0.9341993435E-02
          0                 8           1             5    8     1       0.3315915673E-04       5    8    1         0.1920399050E-02      0.2109346491E-02

    ------------------------------------------------
       NWT REQUIRED            8 OUTER ITERATIONS 
       AND A TOTAL OF         14 INNER ITERATIONS.
    ------------------------------------------------

 NO OUTPUT CONTROL FOR STRESS PERIOD   42   TIME STEP   26
 
 SOLVING FOR HEAD 
                                                   Max.-Head-Change                         Max.-Flux-Residual
  Residual-Control   Outer-Iter.   Inner-Iter.     Column Row Layer    Maximum-Head-Change  Column Row Layer    Maximum-Flux-Residual          L2-NORM 
          0                 1           2             3    7     1       0.6926797973E-02       4    7    1         0.2704812421E+00      0.1100533335E+01
          0                 2           2             5    8     1       0.7988714875E-03       5    8    1         0.4358900967E-01      0.1324887871E+00
          0                 3           2             4    7     1      -0.2306528920E-01       5    6    1        -0.1239978544E+01      0.3049589281E+01
          0                 4           2             4    7     1       0.2195243307E-01       5    6    1         0.1226150993E+01      0.2933189501E+01
          0                 5           2             5    8     1       0.2623451320E-02       5    8    1         0.1514208552E+00      0.1880912756E+00
          0                 6           2             5    8     1       0.6114330629E-03       5    8    1         0.3533956325E-01      0.4162761030E-01
          0                 7           1             5    8     1       0.1423026703E-03       5    8    1         0.8234050443E-02      0.9315435493E-02
          0                 8           1             5    8     1       0.3308062410E-04       5    8    1         0.1915901833E-02      0.2102955477E-02

    ------------------------------------------------
       NWT REQUIRED            8 OUTER ITERATIONS 
       AND A TOTAL OF         14 INNER ITERATIONS.
    ------------------------------------------------

 NO OUTPUT CONTROL FOR STRESS PERIOD   42   TIME STEP   27
 
 SOLVING FOR HEAD 
                                                   Max.-Head-Change                         Max.-Flux-Residual
  Residual-Control   Outer-Iter.   Inner-Iter.     Column Row Layer    Maximum-Head-Change  Column Row Layer    Maximum-Flux-Residual          L2-NORM 
          0                 1           2             3    7     1       0.6896664092E-02       4    7    1         0.2690779587E+00      0.1098242667E+01
          0                 2           2             5    8     1       0.7948374531E-03       5    8    1         0.4337001006E-01      0.1320919196E+00
          0                 3           2             4    7     1      -0.2306590516E-01       5    6    1        -0.1240001732E+01      0.3049667937E+01
          0                 4           2             4    7     1       0.2195980342E-01       5    6    1         0.1226436122E+01      0.2934067013E+01
          0                 5           2             5    8     1       0.2617990964E-02       5    8    1         0.1511118979E+00      0.1874596531E+00
          0                 6           2             5    8     1       0.6101427539E-03       5    8    1         0.3526615234E-01      0.4149942209E-01
          0                 7           1             5    8     1       0.1419906884E-03       5    8    1         0.8216229026E-02      0.9288028768E-02
          0                 8           1             5    8     1       0.3301420511E-04       5    8    1         0.1912089348E-02      0.2097820999E-02

    ------------------------------------------------
       NWT REQUIRED            8 OUTER ITERATIONS 
       AND A TOTAL OF         14 INNER ITERATIONS.
    ------------------------------------------------

 NO OUTPUT CONTROL FOR STRESS PERIOD   42   TIME STEP   28
 
 SOLVING FOR HEAD 
                                                   Max.-Head-Change                         Max.-Flux-Residual
  Residual-Control   Outer-Iter.   Inner-Iter.     Column Row Layer    Maximum-Head-Change  Column Row Layer    Maximum-Flux-Residual          L2-NORM 
          0                 1           2             3    7     1       0.6866797857E-02       4    7    1         0.2676832017E+00      0.1095934370E+01
          0                 2           2             5    8     1       0.7908438973E-03       5    8    1         0.4315321255E-01      0.1316958798E+00
          0                 3           2             4    7     1      -0.2306651474E-01       5    6    1        -0.1240024674E+01      0.3049745383E+01
          0                 4           2             4    7     1       0.2196712723E-01       5    6    1         0.1226719949E+01      0.2934936965E+01
          0                 5           2             5    8     1       0.2612597901E-02       5    8    1         0.1508067731E+00      0.1868358339E+00
          0                 6           2             5    8     1       0.6088542772E-03       5    8    1         0.3519285530E-01      0.4137118302E-01
          0                 7           1             5    8     1       0.1416931566E-03       5    8    1         0.8199226670E-02      0.9261921516E-02
          0                 8           1             5    8     1       0.3293715731E-04       5    8    1         0.1907677407E-02      0.2091551544E-02

    ------------------------------------------------
       NWT REQUIRED            8 OUTER ITERATIONS 
       AND A TOTAL OF         14 INNER ITERATIONS.
    ------------------------------------------------

 NO OUTPUT CONTROL FOR STRESS PERIOD   42   TIME STEP   29
 
 SOLVING FOR HEAD 
                                                   Max.-Head-Change                         Max.-Flux-Residual
  Residual-Control   Outer-Iter.   Inner-Iter.     Column Row Layer    Maximum-Head-Change  Column Row Layer    Maximum-Flux-Residual          L2-NORM 
          0                 1           2             3    7     1       0.6837193939E-02       4    7    1         0.2663044915E+00      0.1093606183E+01
          0                 2           2             5    8     1       0.7869438559E-03       5    8    1         0.4294153859E-01      0.1313009101E+00
          0                 3           2             4    7     1      -0.2306711809E-01       5    6    1        -0.1240047366E+01      0.3049822003E+01
          0                 4           2             4    7     1       0.2197436734E-01       5    6    1         0.1227000101E+01      0.2935796977E+01
          0                 5           2             5    8     1       0.2607320448E-02       5    8    1         0.1505083154E+00      0.1862203226E+00
          0                 6           2             5    8     1       0.6076068255E-03       5    8    1         0.3512191057E-01      0.4124641745E-01
          0                 7           1             5    8     1       0.1413911922E-03       5    8    1         0.8181982837E-02      0.9235146021E-02
          0                 8           1             5    8     1       0.3287307580E-04       5    8    1         0.1903999906E-02      0.2086579593E-02

    ------------------------------------------------
       NWT REQUIRED            8 OUTER ITERATIONS 
       AND A TOTAL OF         14 INNER ITERATIONS.
    ------------------------------------------------

 NO OUTPUT CONTROL FOR STRESS PERIOD   42   TIME STEP   30



 STREAM LISTING     PERIOD     42   STEP       30

 LAYER ROW COL. STREAM  RCH.  FLOW INTO     FLOW TO   FLOW OUT OF   OVRLND.     DIRECT     STREAM       STREAM     STREAM     STREAM   STREAMBED  STREAMBED
                SEG.NO.  NO.  STRM. RCH.    AQUIFER    STRM. RCH.    RUNOFF     PRECIP       ET          HEAD       DEPTH      WIDTH   CONDCTNC.   GRADIENT

   1    1    1     1     1    2.3624E+01  2.3872E-01   2.3386E+01  0.000E+00  0.000E+00  0.000E+00  1.09421E+03  1.157E+00  1.276E+01  5.742E-02  1.386E+00
   1    2    2     1     2    2.3386E+01  3.6908E-01   2.3016E+01  0.000E+00  0.000E+00  0.000E+00  1.08921E+03  1.153E+00  1.270E+01  8.888E-02  1.384E+00
   1    3    3     1     3    2.3016E+01  3.1417E-01   2.2702E+01  0.000E+00  0.000E+00  0.000E+00  1.08357E+03  1.147E+00  1.263E+01  7.575E-02  1.382E+00
   1    3    4     1     4    2.2702E+01  2.8881E-01   2.2414E+01  0.000E+00  0.000E+00  0.000E+00  1.07855E+03  1.143E+00  1.256E+01  6.972E-02  1.381E+00
   1    4    5     2     1    2.0414E+01  3.1702E-01   2.0096E+01  0.000E+00  0.000E+00  0.000E+00  1.07300E+03  1.064E+00  1.200E+01  7.800E-02  1.355E+00
   1    5    6     2     2    2.0096E+01  2.4333E-01   1.9853E+01  0.000E+00  0.000E+00  0.000E+00  1.06756E+03  1.055E+00  1.200E+01  6.000E-02  1.352E+00
   1    6    6     2     3    1.9853E+01  2.4286E-01   1.9610E+01  0.000E+00  0.000E+00  0.000E+00  1.06284E+03  1.048E+00  1.200E+01  6.000E-02  1.349E+00
   1    7    6     2     4    1.9610E+01  2.4240E-01   1.9368E+01  0.000E+00  0.000E+00  0.000E+00  1.05812E+03  1.040E+00  1.200E+01  6.000E-02  1.347E+00
   1    8    6     2     5    1.9368E+01  2.4193E-01   1.9126E+01  0.000E+00  0.000E+00  0.000E+00  1.05339E+03  1.032E+00  1.200E+01  6.000E-02  1.344E+00
   1    3    5     3     1    2.0000E+00  2.8252E-01   1.7175E+00  0.000E+00  0.000E+00  0.000E+00  1.07555E+03  1.909E+00  9.636E+00  7.227E-02  1.955E+00
   1    3    6     3     2    1.7175E+00  2.4905E-01   1.4684E+00  0.000E+00  0.000E+00  0.000E+00  1.07264E+03  1.727E+00  8.909E+00  6.682E-02  1.864E+00
   1    3    7     3     3    1.4684E+00  1.9718E-01   1.2712E+00  0.000E+00  0.000E+00  0.000E+00  1.06987E+03  1.555E+00  8.218E+00  5.547E-02  1.777E+00
   1    4    8     3     4    1.2712E+00  2.2567E-01   1.0456E+00  0.000E+00  0.000E+00  0.000E+00  1.06682E+03  1.364E+00  7.455E+00  6.709E-02  1.682E+00
   1    5    8     3     5    1.0456E+00  1.5790E-01   8.8768E-01  0.000E+00  0.000E+00  0.000E+00  1.06362E+03  1.164E+00  6.655E+00  4.991E-02  1.582E+00
   1    6    8     3     6    8.8768E-01  5.5980E-02   8.3170E-01  0.000E+00  0.000E+00  0.000E+00  1.06158E+03  1.036E+00  6.145E+00  1.844E-02  1.518E+00
   1    5   10     4     1    1.0000E+01  9.0919E-02   9.9091E+00  0.000E+00  0.000E+00  0.000E+00  1.07836E+03  6.368E-01  1.000E+01  2.500E-02  1.212E+00
   1    5    9     4     2    9.9091E+00  1.8158E-01   9.7275E+00  0.000E+00  0.000E+00  0.000E+00  1.07154E+03  6.315E-01  1.000E+01  5.000E-02  1.211E+00
   1    6    8     4     3    9.7275E+00  1.2689E-01   9.6006E+00  0.000E+00  0.000E+00  0.000E+00  1.06381E+03  6.256E-01  1.000E+01  3.500E-02  1.209E+00
   1    6    8     5     1    1.0432E+01  2.2686E-01   1.0205E+01  0.000E+00  0.000E+00  0.000E+00  1.05868E+03  6.790E-01  1.542E+01  6.166E-02  1.226E+00
   1    7    7     5     2    1.0205E+01  2.7894E-01   9.9265E+00  0.000E+00  0.000E+00  0.000E+00  1.05417E+03  6.732E-01  1.519E+01  7.594E-02  1.224E+00
   1    8    7     5     3    9.9265E+00  1.9221E-01   9.7343E+00  0.000E+00  0.000E+00  0.000E+00  1.04992E+03  6.676E-01  1.497E+01  5.241E-02  1.223E+00
   1    8    6     5     4    9.7343E+00  1.3577E-01   9.5985E+00  0.000E+00  0.000E+00  0.000E+00  1.04691E+03  6.637E-01  1.482E+01  3.706E-02  1.221E+00
   1    9    6     6     1    2.1256E+01  2.4624E-01   2.1010E+01  0.000E+00  0.000E+00  0.000E+00  1.04383E+03  1.104E+00  1.200E+01  6.000E-02  1.368E+00
   1   10    7     6     2    2.1010E+01  2.4577E-01   2.0764E+01  0.000E+00  0.000E+00  0.000E+00  1.03928E+03  1.096E+00  1.200E+01  6.000E-02  1.365E+00
   1   11    7     6     3    2.0764E+01  2.4531E-01   2.0518E+01  0.000E+00  0.000E+00  0.000E+00  1.03472E+03  1.088E+00  1.200E+01  6.000E-02  1.363E+00
   1   12    7     6     4    2.0518E+01  2.4484E-01   2.0274E+01  0.000E+00  0.000E+00  0.000E+00  1.03017E+03  1.081E+00  1.200E+01  6.000E-02  1.360E+00
   1   13    7     6     5    2.0274E+01  1.3250E-02   2.0260E+01  0.000E+00  0.000E+00  0.000E+00  1.02699E+03  1.077E+00  1.200E+01  2.400E-02  1.840E-01
   1   14    9     7     1    1.5000E+02  1.4045E+00   1.4860E+02  0.000E+00  0.000E+00  0.000E+00  1.03987E+03  2.288E+00  5.529E+01  5.593E-01  8.371E-01
   1   13    8     7     2    1.4860E+02  2.0463E+00   1.4655E+02  0.000E+00  0.000E+00  0.000E+00  1.03478E+03  2.278E+00  5.525E+01  6.147E-01  1.110E+00
   1   13    7     7     3    1.4655E+02  1.8167E+00   1.4473E+02  0.000E+00  0.000E+00  0.000E+00  1.02969E+03  2.268E+00  5.521E+01  5.583E-01  1.085E+00
   1   13    6     8     1    1.6499E+02  1.2193E+00   1.6377E+02  0.000E+00  0.000E+00  0.000E+00  1.02479E+03  2.915E+00  4.227E+01  4.308E-01  9.435E-01
   1   13    5     8     2    1.6377E+02  4.4562E-01   1.6333E+02  0.000E+00  0.000E+00  0.000E+00  1.01853E+03  2.910E+00  4.219E+01  4.299E-01  3.455E-01
   1   13    4     8     3    1.6333E+02 -1.5398E+00   1.6487E+02  0.000E+00  0.000E+00  0.000E+00  1.01229E+03  2.913E+00  4.224E+01  4.305E+00 -1.192E-01
   1   13    3     8     4    1.6487E+02 -3.2123E+00   1.6808E+02  0.000E+00  0.000E+00  0.000E+00  1.00605E+03  2.929E+00  4.247E+01  4.328E+00 -2.474E-01
   1   13    2     8     5    1.6808E+02 -2.4866E+00   1.7057E+02  0.000E+00  0.000E+00  0.000E+00  9.99823E+02  2.948E+00  4.274E+01  4.356E+00 -1.903E-01
   1   13    1     8     6    1.7057E+02 -1.9840E+00   1.7255E+02  0.000E+00  0.000E+00  0.000E+00  9.94837E+02  2.962E+00  4.295E+01  2.626E+00 -2.518E-01
   1    8    6     9     1    7.4687E+00  0.0000E+00   7.4687E+00  0.000E+00  0.000E+00  0.000E+00  1.08065E+03  1.902E+00  4.000E+00  0.000E+00  1.634E+00
   1    8    5     9     2    7.4687E+00  0.0000E+00   7.4687E+00  0.000E+00  0.000E+00  0.000E+00  1.08015E+03  1.902E+00  4.000E+00  0.000E+00  1.634E+00





UNSATURATED ZONE PACKAGE VOLUMETRIC BUDGET FOR  TIME STEP    30 STRESS PERIOD   42
  ------------------------------------------------------------------------------



     CUMULATIVE VOLUMES      L**3       RATES FOR THIS TIME STEP      L**3/T
     ------------------                 ------------------------

           IN:                                      IN:
           ---                                      ---
        INFILTRATION =  1783519069.0573          INFILTRATION =           8.3164

          OUT:                                     OUT:
          ----                                     ----
              UZF ET =  1316236080.7919                UZF ET =           8.3175
        UZF RECHARGE =    89886516.3645          UZF RECHARGE =           0.8150

            IN - OUT =   377396471.9009              IN - OUT =          -0.8161

          STORAGE:                                 STORAGE:
          --------                                 --------
      STORAGE CHANGE =   377401037.0812        STORAGE CHANGE =          -0.8161

 PERCENT DISCREPANCY IS DIFFERENCE BETWEEN IN-OUT MINUS CHANGE IN STORAGE
 DIVIDED BY THE AVERAGE OF IN AND OUT TIMES 100

 PERCENT DISCREPANCY =          -0.00     PERCENT DISCREPANCY =           0.00






1
  VOLUMETRIC BUDGET FOR AGRICULTURAL FIELDS AT  END OF TIME STEP   30, STRESS PERIOD  42
  ------------------------------------------------------------------------------

     CUMULATIVE VOLUMES      L**3       RATES FOR THIS TIME STEP      L**3/T
     ------------------                 ------------------------

           IN:                                      IN:
           ---                                      ---
               AG WELLS  =  1101049344.0000                 AG WELLS  =           0.0000
      DIVERSION SEGMENTS =   591202560.0000        DIVERSION SEGMENTS =           7.4687
       IRRIGATION PONDS  =           0.0000         IRRIGATION PONDS  =           0.0000
           GW IRRIGATION =           0.0000             GW IRRIGATION =           0.0000
           SW IRRIGATION =           0.0000             SW IRRIGATION =           0.0000
        SYSTEM LOSSES GW =           0.0000          SYSTEM LOSSES GW =           0.0000
        SYSTEM LOSSES SW =           0.0000          SYSTEM LOSSES SW =           0.0000

                TOTAL IN =  1692251904.0000                  TOTAL IN =           7.4687

          OUT:                                     OUT:
          ----                                     ----
               AG WELLS  =           0.0000                 AG WELLS  =           0.0000
      DIVERSION SEGMENTS =           0.0000        DIVERSION SEGMENTS =           0.0000
       IRRIGATION PONDS  =           0.0000         IRRIGATION PONDS  =           0.0000
           GW IRRIGATION =  1101049344.0000             GW IRRIGATION =           0.0000
           SW IRRIGATION =   591214912.0000             SW IRRIGATION =           7.4689
        SYSTEM LOSSES GW =           0.0000          SYSTEM LOSSES GW =           0.0000
        SYSTEM LOSSES SW =           0.0000          SYSTEM LOSSES SW =           0.0000

               TOTAL OUT =  1692264192.0000                 TOTAL OUT =           7.4689

                IN - OUT =      -12288.0000                  IN - OUT =      -1.4973E-04

     PERCENT DISCREPANCY =          -0.00         PERCENT DISCREPANCY =          -0.00



1
  VOLUMETRIC BUDGET FOR ENTIRE MODEL AT END OF TIME STEP   30, STRESS PERIOD  42
  ------------------------------------------------------------------------------

     CUMULATIVE VOLUMES      L**3       RATES FOR THIS TIME STEP      L**3/T
     ------------------                 ------------------------

           IN:                                      IN:
           ---                                      ---
             STORAGE     =  1721464704.0000               STORAGE     =           1.8900
       CONSTANT HEAD     =           0.0000         CONSTANT HEAD     =           0.0000
     HEAD DEP BOUNDS     =    31163914.0000       HEAD DEP BOUNDS     =           0.2904
      STREAM LEAKAGE     =  1300059136.0000        STREAM LEAKAGE     =          12.8276
        UZF RECHARGE     =    89886528.0000          UZF RECHARGE     =           0.8150
               GW ET     =           0.0000                 GW ET     =           0.0000
     SURFACE LEAKAGE     =           0.0000       SURFACE LEAKAGE     =           0.0000
           AG WELLS      =           0.0000             AG WELLS      =           0.0000

                TOTAL IN =  3142574336.0000                  TOTAL IN =          15.8230

          OUT:                                     OUT:
          ----                                     ----
             STORAGE     =   956765504.0000               STORAGE     =           6.3109
       CONSTANT HEAD     =           0.0000         CONSTANT HEAD     =           0.0000
     HEAD DEP BOUNDS     =    31062676.0000       HEAD DEP BOUNDS     =           0.2885
      STREAM LEAKAGE     =  1053662016.0000        STREAM LEAKAGE     =           9.2228
        UZF RECHARGE     =           0.0000          UZF RECHARGE     =           0.0000
               GW ET     =           0.0000                 GW ET     =           0.0000
     SURFACE LEAKAGE     =           0.0000       SURFACE LEAKAGE     =           0.0000
           AG WELLS      =  1101049344.0000             AG WELLS      =           0.0000

               TOTAL OUT =  3142539520.0000                 TOTAL OUT =          15.8222

                IN - OUT =       34816.0000                  IN - OUT =       8.2493E-04

     PERCENT DISCREPANCY =           0.00         PERCENT DISCREPANCY =           0.01






         TIME SUMMARY AT END OF TIME STEP   30 IN STRESS PERIOD   42
                    SECONDS     MINUTES      HOURS       DAYS        YEARS
                    -----------------------------------------------------------
   TIME STEP LENGTH  87667.      1461.1      24.352      1.0147     2.77799E-03
 STRESS PERIOD TIME 2.63000E+06  43833.      730.56      30.440     8.33397E-02
         TOTAL TIME 1.07916E+08 1.79859E+06  29977.      1249.0      3.4196    
1
1
                            STRESS PERIOD NO.   43, LENGTH =   2630000.    
                            -----------------------------------------------

                              NUMBER OF TIME STEPS =    30

                               MULTIPLIER FOR DELT =     1.000

                            INITIAL TIME STEP SIZE =   87666.66    

 REUSING NON-PARAMETER GHB CELLS FROM LAST STRESS PERIOD

      2 GHB CELLS

 REUSING STREAM SEGMENT DATA FROM LAST STRESS PERIOD



            AREAL INFILTRATION RATE
 READING ON UNIT   19 WITH FORMAT: (FREE)              

            1           2           3           4           5           6           7           8           9          10
 ........................................................................................................................
   1   1.0000E-10  2.0000E-10   0.000       0.000       0.000       0.000       0.000       0.000       0.000       0.000    
   2   2.0000E-10  1.0000E-10  2.0000E-10   0.000       0.000      8.0000E-10  8.0000E-10  5.0000E-10   0.000       0.000    
   3    0.000      5.0000E-10  1.0000E-10  1.0000E-10  8.0000E-10  8.0000E-10  5.0000E-10  5.0000E-10   0.000       0.000    
   4   8.0000E-10  5.0000E-10  1.0000E-10  1.0000E-10  1.0000E-10  1.0000E-10  1.0000E-10  1.0000E-10  2.0000E-10   0.000    
   5   8.0000E-10  5.0000E-10  1.0000E-10  1.0000E-10  1.0000E-10  1.0000E-10  1.0000E-10  1.0000E-10  1.0000E-10  1.0000E-10
   6   8.0000E-10  5.0000E-10  5.0000E-10  2.0000E-10  2.0000E-10  1.0000E-10  1.0000E-10  1.0000E-10  1.0000E-10  5.0000E-10
   7   8.0000E-10  5.0000E-10  5.0000E-10  2.0000E-10  2.0000E-10  1.0000E-10  1.0000E-10  2.0000E-10  2.0000E-10   0.000    
   8    0.000      5.0000E-10  5.0000E-10  2.0000E-10  2.0000E-10  1.0000E-10  1.0000E-10  2.0000E-10  5.0000E-10   0.000    
   9    0.000      5.0000E-10  5.0000E-10  2.0000E-10  2.0000E-10  1.0000E-10  1.0000E-10  2.0000E-10  5.0000E-10   0.000    
  10    0.000      5.0000E-10  5.0000E-10  2.0000E-10  2.0000E-10  1.0000E-10  1.0000E-10  2.0000E-10  5.0000E-10  8.0000E-10
  11    0.000      1.0000E-10  1.0000E-10  1.0000E-10  1.0000E-10  1.0000E-10  1.0000E-10  2.0000E-10  5.0000E-10   0.000    
  12   1.0000E-10  1.0000E-10  1.0000E-10  1.0000E-10  1.0000E-10  1.0000E-10  1.0000E-10  1.0000E-10  2.0000E-10   0.000    
  13   1.0000E-10  1.0000E-10  2.0000E-10  2.0000E-10  2.0000E-10  2.0000E-10  2.0000E-10  1.0000E-10  1.0000E-10   0.000    
  14    0.000      2.0000E-10  5.0000E-10  5.0000E-10  5.0000E-10  5.0000E-10  5.0000E-10  2.0000E-10  1.0000E-10   0.000    
  15    0.000       0.000      8.0000E-10  8.0000E-10  8.0000E-10  8.0000E-10   0.000       0.000       0.000       0.000    

                  ET RATE =  1.500000E-07

 USING ET EXTINCTION DEPTH FROM PREVIOUS STRESS PERIOD. CURRENT PERIOD IS:      43

 USING EXTINCTION WATER CONTENT FROM PREVIOUS STRESS PERIOD. CURRENT PERIOD IS:      43

 USING AIR ENTRY PRESSURE FROM PREVIOUS STRESS PERIOD. CURRENT PERIOD IS:      43

 USING ROOT PRESSURE HEAD FROM PREVIOUS STRESS PERIOD. CURRENT PERIOD IS:      43

 USING ROOT ACTIVITY FROM PREVIOUS STRESS PERIOD. CURRENT PERIOD IS:      43

 PROCESSING AG STRESS PERIOD DATA

 READING AG STRESS PERIOD DATA

 READING IRRIGATION SEGMENT

 READING IRRIGATION WELL

 READING SUPPLEMENTAL WELL

 NO IRRPOND OR REUSING IRRPOND DATA FROM LAST STRESS PERIOD

 END PROCESSING AG STRESS PERIOD DATA OPTIONS
 
 SOLVING FOR HEAD 
                                                   Max.-Head-Change                         Max.-Flux-Residual
  Residual-Control   Outer-Iter.   Inner-Iter.     Column Row Layer    Maximum-Head-Change  Column Row Layer    Maximum-Flux-Residual          L2-NORM 
          0                 1           2             3    7     1       0.6807605939E-02       4   13    1        -0.3011127599E+00      0.1178847711E+01
          0                 2           2             4    7     1      -0.5602242543E-01       5    6    1        -0.3015296551E+01      0.7375421807E+01
          0                 3           2             5    6     1       0.2028384779E-02       5    6    1         0.1147725493E+00      0.2438745701E+00
          0                 4           1             5    6     1      -0.8071127055E-04       5    6    1        -0.4694206170E-02      0.1004892618E-01

    ------------------------------------------------
       NWT REQUIRED            4 OUTER ITERATIONS 
       AND A TOTAL OF          7 INNER ITERATIONS.
    ------------------------------------------------

 NO OUTPUT CONTROL FOR STRESS PERIOD   43   TIME STEP    1
 
 SOLVING FOR HEAD 
                                                   Max.-Head-Change                         Max.-Flux-Residual
  Residual-Control   Outer-Iter.   Inner-Iter.     Column Row Layer    Maximum-Head-Change  Column Row Layer    Maximum-Flux-Residual          L2-NORM 
          0                 1           2             3    7     1       0.6195409418E-02       5    6    1         0.2618758902E+00      0.1009555885E+01
          0                 2           2             3    7     1      -0.6026450251E-03       5    6    1        -0.2618764458E-01      0.1008320062E+00
          0                 3           2             4    7     1      -0.2106823112E-01       5    8    1        -0.1132144881E+01      0.2785220348E+01
          0                 4           2             4    7     1       0.2061346793E-01       5    8    1         0.1137975814E+01      0.2787345592E+01
          0                 5           1             4   13     1      -0.5913149469E-04       4   13    1        -0.3677467642E-02      0.9229216145E-02

    ------------------------------------------------
       NWT REQUIRED            5 OUTER ITERATIONS 
       AND A TOTAL OF          9 INNER ITERATIONS.
    ------------------------------------------------

 NO OUTPUT CONTROL FOR STRESS PERIOD   43   TIME STEP    2
 
 SOLVING FOR HEAD 
                                                   Max.-Head-Change                         Max.-Flux-Residual
  Residual-Control   Outer-Iter.   Inner-Iter.     Column Row Layer    Maximum-Head-Change  Column Row Layer    Maximum-Flux-Residual          L2-NORM 
          0                 1           2             3    7     1       0.6151475375E-02       5    6    1         0.2595799880E+00      0.1005820758E+01
          0                 2           2             4    7     1      -0.4723709228E-01       5    6    1        -0.2538479299E+01      0.6243592321E+01
          0                 3           2             4    7     1      -0.3516485448E-01       5    8    1        -0.1889126401E+01      0.4625992492E+01
          0                 4           2             4    7     1       0.8533986127E-02       5    8    1         0.4711490565E+00      0.1153970651E+01
          0                 5           2             4    7     1      -0.3396570229E-03       5    8    1        -0.1927474815E-01      0.4720887348E-01
          0                 6           1             4    7     1       0.4191225686E-05       5    8    1         0.2444515812E-03      0.5987260360E-03

    ------------------------------------------------
       NWT REQUIRED            6 OUTER ITERATIONS 
       AND A TOTAL OF         11 INNER ITERATIONS.
    ------------------------------------------------

 NO OUTPUT CONTROL FOR STRESS PERIOD   43   TIME STEP    3
 
 SOLVING FOR HEAD 
                                                   Max.-Head-Change                         Max.-Flux-Residual
  Residual-Control   Outer-Iter.   Inner-Iter.     Column Row Layer    Maximum-Head-Change  Column Row Layer    Maximum-Flux-Residual          L2-NORM 
          0                 1           2             5    6     1       0.7045134133E-02       5    6    1         0.3752043354E+00      0.1068942603E+01
          0                 2           2             5    6     1      -0.6853010669E-03       5    6    1        -0.3752054104E-01      0.1067276805E+00
          0                 3           2             4    7     1      -0.3911346503E-02       4    7    1        -0.2100714084E+00      0.5162635114E+00
          0                 4           2             4    7     1       0.2521121730E-02       4    7    1         0.1391749396E+00      0.3413331095E+00
          0                 5           2             4    7     1       0.8543456226E-03       5    6    1         0.4716403763E-01      0.1157542173E+00
          0                 6           2             4    7     1       0.2893146957E-03       4    7    1         0.1597069527E-01      0.3928635631E-01
          0                 7           1             4    7     1      -0.9114320015E-04       4    7    1        -0.5171509533E-02      0.1360701299E-01

    ------------------------------------------------
       NWT REQUIRED            7 OUTER ITERATIONS 
       AND A TOTAL OF         13 INNER ITERATIONS.
    ------------------------------------------------

 NO OUTPUT CONTROL FOR STRESS PERIOD   43   TIME STEP    4
 
 SOLVING FOR HEAD 
                                                   Max.-Head-Change                         Max.-Flux-Residual
  Residual-Control   Outer-Iter.   Inner-Iter.     Column Row Layer    Maximum-Head-Change  Column Row Layer    Maximum-Flux-Residual          L2-NORM 
          0                 1           2             5    6     1       0.6892364512E-02       5    6    1         0.3667405816E+00      0.1058064310E+01
          0                 2           2             4    7     1      -0.6331364545E-01       5    6    1        -0.3409807799E+01      0.8368801206E+01
          0                 3           2             4    7     1       0.4606642805E-01       5    6    1         0.2543701002E+01      0.6229929002E+01
          0                 4           2             4    7     1      -0.1833061411E-02       5    6    1        -0.1040381172E+00      0.2548104768E+00
          0                 5           1             4    7     1       0.2260238505E-04       5    6    1         0.1318482666E-02      0.3229257502E-02

    ------------------------------------------------
       NWT REQUIRED            5 OUTER ITERATIONS 
       AND A TOTAL OF          9 INNER ITERATIONS.
    ------------------------------------------------

 NO OUTPUT CONTROL FOR STRESS PERIOD   43   TIME STEP    5
 
 SOLVING FOR HEAD 
                                                   Max.-Head-Change                         Max.-Flux-Residual
  Residual-Control   Outer-Iter.   Inner-Iter.     Column Row Layer    Maximum-Head-Change  Column Row Layer    Maximum-Flux-Residual          L2-NORM 
          0                 1           2             5    6     1       0.7281846606E-02       5    6    1         0.3880594702E+00      0.1084930644E+01
          0                 2           2             4    7     1      -0.1205803575E-01       5    6    1        -0.6586091072E+00      0.1609075109E+01
          0                 3           2             4    7     1      -0.4460719163E-01       4    7    1        -0.2395499087E+01      0.5891489980E+01
          0                 4           2             4    7     1       0.4409108989E-01       4    7    1         0.2433949983E+01      0.5961986046E+01
          0                 5           2             4    7     1      -0.1754873986E-02       4    8    1        -0.9957654348E-01      0.2439091184E+00
          0                 6           1             4    7     1       0.2165436930E-04       4    8    1         0.1262869841E-02      0.3093397740E-02

    ------------------------------------------------
       NWT REQUIRED            6 OUTER ITERATIONS 
       AND A TOTAL OF         11 INNER ITERATIONS.
    ------------------------------------------------

 NO OUTPUT CONTROL FOR STRESS PERIOD   43   TIME STEP    6
 
 SOLVING FOR HEAD 
                                                   Max.-Head-Change                         Max.-Flux-Residual
  Residual-Control   Outer-Iter.   Inner-Iter.     Column Row Layer    Maximum-Head-Change  Column Row Layer    Maximum-Flux-Residual          L2-NORM 
          0                 1           2             5    6     1       0.7512566044E-02       5    6    1         0.4006496066E+00      0.1105064327E+01
          0                 2           2             4    7     1      -0.1310850939E-01       5    6    1        -0.7156220708E+00      0.1749206063E+01
          0                 3           2             4    7     1      -0.4267209365E-01       4    7    1        -0.2291581064E+01      0.5636646984E+01
          0                 4           2             4    7     1       0.4294964707E-01       4    7    1         0.2370920785E+01      0.5807579554E+01
          0                 5           2             4    7     1      -0.1709752396E-02       4    6    1        -0.9837238894E-01      0.2381625196E+00
          0                 6           1             4    7     1       0.2109759137E-04       4    6    1         0.1247849022E-02      0.3020873064E-02

    ------------------------------------------------
       NWT REQUIRED            6 OUTER ITERATIONS 
       AND A TOTAL OF         11 INNER ITERATIONS.
    ------------------------------------------------

 NO OUTPUT CONTROL FOR STRESS PERIOD   43   TIME STEP    7
 
 SOLVING FOR HEAD 
                                                   Max.-Head-Change                         Max.-Flux-Residual
  Residual-Control   Outer-Iter.   Inner-Iter.     Column Row Layer    Maximum-Head-Change  Column Row Layer    Maximum-Flux-Residual          L2-NORM 
          0                 1           2             5    6     1       0.7738298519E-02       5    6    1         0.4129612062E+00      0.1125858322E+01
          0                 2           2             4    7     1      -0.1395834072E-01       5    6    1        -0.7618210047E+00      0.1862767460E+01
          0                 3           2             4    7     1      -0.4114072296E-01       4    7    1        -0.2209343836E+01      0.5434955485E+01
          0                 4           2             4    7     1       0.4203068588E-01       4    7    1         0.2320195714E+01      0.5683181708E+01
          0                 5           2             4    7     1      -0.1673088963E-02       4    6    1        -0.9590948524E-01      0.2329172387E+00
          0                 6           1             4    7     1       0.2064518121E-04       4    6    1         0.1216511752E-02      0.2954162741E-02

    ------------------------------------------------
       NWT REQUIRED            6 OUTER ITERATIONS 
       AND A TOTAL OF         11 INNER ITERATIONS.
    ------------------------------------------------

 NO OUTPUT CONTROL FOR STRESS PERIOD   43   TIME STEP    8
 
 SOLVING FOR HEAD 
                                                   Max.-Head-Change                         Max.-Flux-Residual
  Residual-Control   Outer-Iter.   Inner-Iter.     Column Row Layer    Maximum-Head-Change  Column Row Layer    Maximum-Flux-Residual          L2-NORM 
          0                 1           2             5    6     1       0.7959188036E-02       5    6    1         0.4250029178E+00      0.1147088896E+01
          0                 2           2             4    7     1      -0.1462655519E-01       5    6    1        -0.7982289934E+00      0.1952263341E+01
          0                 3           2             4    7     1      -0.3995976153E-01       4    7    1        -0.2145924115E+01      0.5279401422E+01
          0                 4           2             4    7     1       0.4131246477E-01       4    7    1         0.2280551980E+01      0.5585927635E+01
          0                 5           2             4    7     1      -0.1644416417E-02       4    6    1        -0.9390462148E-01      0.2287854464E+00
          0                 6           1             4    7     1       0.2029137482E-04       4    6    1         0.1190984220E-02      0.2901618821E-02

    ------------------------------------------------
       NWT REQUIRED            6 OUTER ITERATIONS 
       AND A TOTAL OF         11 INNER ITERATIONS.
    ------------------------------------------------

 NO OUTPUT CONTROL FOR STRESS PERIOD   43   TIME STEP    9
 
 SOLVING FOR HEAD 
                                                   Max.-Head-Change                         Max.-Flux-Residual
  Residual-Control   Outer-Iter.   Inner-Iter.     Column Row Layer    Maximum-Head-Change  Column Row Layer    Maximum-Flux-Residual          L2-NORM 
          0                 1           2             5    6     1       0.8174658761E-02       5    6    1         0.4367432047E+00      0.1168538821E+01
          0                 2           2             4    7     1      -0.1514116556E-01       5    6    1        -0.8263490330E+00      0.2021387986E+01
          0                 3           2             4    7     1      -0.3906622846E-01       4    7    1        -0.2097939712E+01      0.5161696060E+01
          0                 4           2             4    7     1       0.4076341184E-01       4    7    1         0.2250246713E+01      0.5511548835E+01
          0                 5           2             4    7     1      -0.1622478309E-02       4    6    1        -0.9228730323E-01      0.2255928940E+00
          0                 6           1             4    7     1       0.2002066897E-04       4    6    1         0.1170430397E-02      0.2861102804E-02

    ------------------------------------------------
       NWT REQUIRED            6 OUTER ITERATIONS 
       AND A TOTAL OF         11 INNER ITERATIONS.
    ------------------------------------------------

 NO OUTPUT CONTROL FOR STRESS PERIOD   43   TIME STEP   10
 
 SOLVING FOR HEAD 
                                                   Max.-Head-Change                         Max.-Flux-Residual
  Residual-Control   Outer-Iter.   Inner-Iter.     Column Row Layer    Maximum-Head-Change  Column Row Layer    Maximum-Flux-Residual          L2-NORM 
          0                 1           2             5    6     1       0.8384462638E-02       5    6    1         0.4481688158E+00      0.1190037159E+01
          0                 2           2             4    7     1      -0.1553183673E-01       5    6    1        -0.8477741630E+00      0.2074057001E+01
          0                 3           2             4    7     1      -0.3839977219E-01       4    7    1        -0.2062132162E+01      0.5073911345E+01
          0                 4           2             4    7     1       0.4035085059E-01       4    7    1         0.2227457373E+01      0.5456155328E+01
          0                 5           2             4    7     1      -0.1606005587E-02       4    8    1        -0.9112788188E-01      0.2232143342E+00
          0                 6           1             4    7     1       0.1981740340E-04       4    8    1         0.1155721192E-02      0.2830938689E-02

    ------------------------------------------------
       NWT REQUIRED            6 OUTER ITERATIONS 
       AND A TOTAL OF         11 INNER ITERATIONS.
    ------------------------------------------------

 NO OUTPUT CONTROL FOR STRESS PERIOD   43   TIME STEP   11
 
 SOLVING FOR HEAD 
                                                   Max.-Head-Change                         Max.-Flux-Residual
  Residual-Control   Outer-Iter.   Inner-Iter.     Column Row Layer    Maximum-Head-Change  Column Row Layer    Maximum-Flux-Residual          L2-NORM 
          0                 1           2             5    6     1       0.8587744784E-02       5    6    1         0.4592333815E+00      0.1211389648E+01
          0                 2           2             4    7     1      -0.1582574601E-01       5    6    1        -0.8639614908E+00      0.2113857313E+01
          0                 3           2             4    7     1      -0.3790716918E-01       4    7    1        -0.2035673693E+01      0.5009140924E+01
          0                 4           2             4    7     1       0.4004412243E-01       4    7    1         0.2210524065E+01      0.5414682932E+01
          0                 5           2             4    7     1      -0.1593797287E-02       4    8    1        -0.9043503797E-01      0.2215176384E+00
          0                 6           1             4    7     1       0.1966675885E-04       4    8    1         0.1146934309E-02      0.2809418395E-02

    ------------------------------------------------
       NWT REQUIRED            6 OUTER ITERATIONS 
       AND A TOTAL OF         11 INNER ITERATIONS.
    ------------------------------------------------

 NO OUTPUT CONTROL FOR STRESS PERIOD   43   TIME STEP   12
 
 SOLVING FOR HEAD 
                                                   Max.-Head-Change                         Max.-Flux-Residual
  Residual-Control   Outer-Iter.   Inner-Iter.     Column Row Layer    Maximum-Head-Change  Column Row Layer    Maximum-Flux-Residual          L2-NORM 
          0                 1           2             5    6     1       0.8784443040E-02       5    6    1         0.4699384506E+00      0.1232465246E+01
          0                 2           2             4    7     1      -0.1604595874E-01       5    6    1        -0.8761452260E+00      0.2143810183E+01
          0                 3           2             4    7     1      -0.3754555374E-01       4    7    1        -0.2016260729E+01      0.4961308747E+01
          0                 4           2             4    7     1       0.3981819195E-01       4    7    1         0.2198051763E+01      0.5384112852E+01
          0                 5           2             4    7     1      -0.1584804874E-02       4    8    1        -0.8992471423E-01      0.2202668064E+00
          0                 6           1             4    7     1       0.1955579671E-04       4    8    1         0.1140462223E-02      0.2793522361E-02

    ------------------------------------------------
       NWT REQUIRED            6 OUTER ITERATIONS 
       AND A TOTAL OF         11 INNER ITERATIONS.
    ------------------------------------------------

 NO OUTPUT CONTROL FOR STRESS PERIOD   43   TIME STEP   13
 
 SOLVING FOR HEAD 
                                                   Max.-Head-Change                         Max.-Flux-Residual
  Residual-Control   Outer-Iter.   Inner-Iter.     Column Row Layer    Maximum-Head-Change  Column Row Layer    Maximum-Flux-Residual          L2-NORM 
          0                 1           2             5    6     1       0.8974120877E-02       5    6    1         0.4802554709E+00      0.1253216433E+01
          0                 2           2             4    7     1      -0.1621066423E-01       5    6    1        -0.8853131424E+00      0.2166367518E+01
          0                 3           2             4    7     1      -0.3728162927E-01       4    7    1        -0.2002087160E+01      0.4926527584E+01
          0                 4           2             4    7     1       0.3965284390E-01       4    7    1         0.2188923278E+01      0.5361749243E+01
          0                 5           2             4    7     1      -0.1578223744E-02       4    8    1        -0.8955120210E-01      0.2193518830E+00
          0                 6           1             4    7     1       0.1947458868E-04       4    8    1         0.1135725230E-02      0.2781914453E-02

    ------------------------------------------------
       NWT REQUIRED            6 OUTER ITERATIONS 
       AND A TOTAL OF         11 INNER ITERATIONS.
    ------------------------------------------------

 NO OUTPUT CONTROL FOR STRESS PERIOD   43   TIME STEP   14
 
 SOLVING FOR HEAD 
                                                   Max.-Head-Change                         Max.-Flux-Residual
  Residual-Control   Outer-Iter.   Inner-Iter.     Column Row Layer    Maximum-Head-Change  Column Row Layer    Maximum-Flux-Residual          L2-NORM 
          0                 1           2             5    6     1       0.9157003722E-02       5    6    1         0.4901969963E+00      0.1273581372E+01
          0                 2           2             4    7     1      -0.1633428081E-01       5    6    1        -0.8922359914E+00      0.2183419429E+01
          0                 3           2             4    7     1      -0.3708957890E-01       4    7    1        -0.1991773260E+01      0.4901214719E+01
          0                 4           2             4    7     1       0.3953238260E-01       4    7    1         0.2182272640E+01      0.5345455509E+01
          0                 5           2             4    7     1      -0.1573429184E-02       4    8    1        -0.8927907128E-01      0.2186852913E+00
          0                 6           1             4    7     1       0.1941542604E-04       4    8    1         0.1132273967E-02      0.2773467566E-02

    ------------------------------------------------
       NWT REQUIRED            6 OUTER ITERATIONS 
       AND A TOTAL OF         11 INNER ITERATIONS.
    ------------------------------------------------

 NO OUTPUT CONTROL FOR STRESS PERIOD   43   TIME STEP   15
 
 SOLVING FOR HEAD 
                                                   Max.-Head-Change                         Max.-Flux-Residual
  Residual-Control   Outer-Iter.   Inner-Iter.     Column Row Layer    Maximum-Head-Change  Column Row Layer    Maximum-Flux-Residual          L2-NORM 
          0                 1           2             5    6     1       0.9332818737E-02       5    6    1         0.4997483415E+00      0.1293503920E+01
          0                 2           2             4    7     1      -0.1642766381E-01       5    6    1        -0.8974964897E+00      0.2196403329E+01
          0                 3           2             4    7     1      -0.3695013239E-01       4    7    1        -0.1984284197E+01      0.4882832534E+01
          0                 4           2             4    7     1       0.3944490869E-01       4    7    1         0.2177442979E+01      0.5333622625E+01
          0                 5           2             4    7     1      -0.1569947576E-02       4    8    1        -0.8908144666E-01      0.2182011857E+00
          0                 6           1             4    7     1       0.1937246459E-04       4    8    1         0.1129767624E-02      0.2767324287E-02

    ------------------------------------------------
       NWT REQUIRED            6 OUTER ITERATIONS 
       AND A TOTAL OF         11 INNER ITERATIONS.
    ------------------------------------------------

 NO OUTPUT CONTROL FOR STRESS PERIOD   43   TIME STEP   16
 
 SOLVING FOR HEAD 
                                                   Max.-Head-Change                         Max.-Flux-Residual
  Residual-Control   Outer-Iter.   Inner-Iter.     Column Row Layer    Maximum-Head-Change  Column Row Layer    Maximum-Flux-Residual          L2-NORM 
          0                 1           2             5    6     1       0.9501986774E-02       5    6    1         0.5089334452E+00      0.1312945888E+01
          0                 2           2             4    7     1      -0.1649894899E-01       5    6    1        -0.9015343503E+00      0.2206394761E+01
          0                 3           2             4    7     1      -0.3684899590E-01       4    7    1        -0.1978852375E+01      0.4869499001E+01
          0                 4           2             4    7     1       0.3938152653E-01       4    7    1         0.2173943235E+01      0.5325047739E+01
          0                 5           2             4    7     1      -0.1567424860E-02       4    8    1        -0.8893823744E-01      0.2178503710E+00
          0                 6           1             4    7     1       0.1934133560E-04       4    8    1         0.1127951396E-02      0.2762874308E-02

    ------------------------------------------------
       NWT REQUIRED            6 OUTER ITERATIONS 
       AND A TOTAL OF         11 INNER ITERATIONS.
    ------------------------------------------------

 NO OUTPUT CONTROL FOR STRESS PERIOD   43   TIME STEP   17
 
 SOLVING FOR HEAD 
                                                   Max.-Head-Change                         Max.-Flux-Residual
  Residual-Control   Outer-Iter.   Inner-Iter.     Column Row Layer    Maximum-Head-Change  Column Row Layer    Maximum-Flux-Residual          L2-NORM 
          0                 1           2             5    6     1       0.9664538201E-02       5    6    1         0.5177536821E+00      0.1331900361E+01
          0                 2           2             4    7     1      -0.1655412093E-01       5    6    1        -0.9046720528E+00      0.2214190940E+01
          0                 3           2             4    7     1      -0.3677569450E-01       4    7    1        -0.1974915283E+01      0.4859833864E+01
          0                 4           2             4    7     1       0.3933568991E-01       4    7    1         0.2171412046E+01      0.5318845640E+01
          0                 5           2             4    7     1      -0.1565600486E-02       4    8    1        -0.8883465844E-01      0.2175966383E+00
          0                 6           1             4    7     1       0.1931882332E-04       4    8    1         0.1126637780E-02      0.2759656170E-02

    ------------------------------------------------
       NWT REQUIRED            6 OUTER ITERATIONS 
       AND A TOTAL OF         11 INNER ITERATIONS.
    ------------------------------------------------

 NO OUTPUT CONTROL FOR STRESS PERIOD   43   TIME STEP   18
 
 SOLVING FOR HEAD 
                                                   Max.-Head-Change                         Max.-Flux-Residual
  Residual-Control   Outer-Iter.   Inner-Iter.     Column Row Layer    Maximum-Head-Change  Column Row Layer    Maximum-Flux-Residual          L2-NORM 
          0                 1           2             5    6     1       0.9820696771E-02       5    6    1         0.5262219816E+00      0.1350341250E+01
          0                 2           2             4    7     1      -0.1659756472E-01       5    6    1        -0.9071479376E+00      0.2220375139E+01
          0                 3           2             4    7     1      -0.3672254126E-01       4    7    1        -0.1972060129E+01      0.4852826584E+01
          0                 4           2             4    7     1       0.3930257572E-01       4    7    1         0.2169583166E+01      0.5314363828E+01
          0                 5           2             4    7     1      -0.1564282487E-02       4    8    1        -0.8875981645E-01      0.2174132281E+00
          0                 6           1             4    7     1       0.1930256008E-04       4    8    1         0.1125688581E-02      0.2757319828E-02

    ------------------------------------------------
       NWT REQUIRED            6 OUTER ITERATIONS 
       AND A TOTAL OF         11 INNER ITERATIONS.
    ------------------------------------------------

 NO OUTPUT CONTROL FOR STRESS PERIOD   43   TIME STEP   19
 
 SOLVING FOR HEAD 
                                                   Max.-Head-Change                         Max.-Flux-Residual
  Residual-Control   Outer-Iter.   Inner-Iter.     Column Row Layer    Maximum-Head-Change  Column Row Layer    Maximum-Flux-Residual          L2-NORM 
          0                 1           2             5    6     1       0.9970864894E-02       5    6    1         0.5343605071E+00      0.1368277521E+01
          0                 2           2             4    7     1      -0.1663251971E-01       5    6    1        -0.9091374920E+00      0.2225377266E+01
          0                 3           2             4    7     1      -0.3668395622E-01       4    7    1        -0.1969987264E+01      0.4847738543E+01
          0                 4           2             4    7     1       0.3927866187E-01       4    7    1         0.2168262167E+01      0.5311126646E+01
          0                 5           2             4    7     1      -0.1563330676E-02       4    8    1        -0.8870575696E-01      0.2172807894E+00
          0                 6           1             4    7     1       0.1929081488E-04       4    8    1         0.1125003015E-02      0.2755641451E-02

    ------------------------------------------------
       NWT REQUIRED            6 OUTER ITERATIONS 
       AND A TOTAL OF         11 INNER ITERATIONS.
    ------------------------------------------------

 NO OUTPUT CONTROL FOR STRESS PERIOD   43   TIME STEP   20
 
 SOLVING FOR HEAD 
                                                   Max.-Head-Change                         Max.-Flux-Residual
  Residual-Control   Outer-Iter.   Inner-Iter.     Column Row Layer    Maximum-Head-Change  Column Row Layer    Maximum-Flux-Residual          L2-NORM 
          0                 1           2             5    6     1       0.1011499923E-01       5    6    1         0.5421673089E+00      0.1385694048E+01
          0                 2           2             4    7     1      -0.1666127396E-01       5    6    1        -0.9107655119E+00      0.2229505143E+01
          0                 3           2             4    7     1      -0.3665590662E-01       4    7    1        -0.1968480129E+01      0.4844040736E+01
          0                 4           2             4    7     1       0.3926141700E-01       4    7    1         0.2167309315E+01      0.5308791496E+01
          0                 5           2             4    7     1      -0.1562644301E-02       4    8    1        -0.8866676224E-01      0.2171852569E+00
          0                 6           1             4    7     1       0.1928234513E-04       4    8    1         0.1124508464E-02      0.2754435719E-02

    ------------------------------------------------
       NWT REQUIRED            6 OUTER ITERATIONS 
       AND A TOTAL OF         11 INNER ITERATIONS.
    ------------------------------------------------

 NO OUTPUT CONTROL FOR STRESS PERIOD   43   TIME STEP   21
 
 SOLVING FOR HEAD 
                                                   Max.-Head-Change                         Max.-Flux-Residual
  Residual-Control   Outer-Iter.   Inner-Iter.     Column Row Layer    Maximum-Head-Change  Column Row Layer    Maximum-Flux-Residual          L2-NORM 
          0                 1           2             5    6     1       0.1025367843E-01       5    6    1         0.5496742044E+00      0.1402612968E+01
          0                 2           2             4    7     1      -0.1668554513E-01       5    6    1        -0.9121272681E+00      0.2232989420E+01
          0                 3           2             4    7     1      -0.3663545187E-01       4    7    1        -0.1967380817E+01      0.4841345240E+01
          0                 4           2             4    7     1       0.3926820520E-01       5    7    1         0.2166590541E+01      0.5307053776E+01
          0                 5           2             4    7     1      -0.1581626544E-02       4    7    1        -0.8980303394E-01      0.2175978417E+00
          0                 6           1             4    7     1       0.1951657391E-04       4    7    1         0.1139119699E-02      0.2759931120E-02

    ------------------------------------------------
       NWT REQUIRED            6 OUTER ITERATIONS 
       AND A TOTAL OF         11 INNER ITERATIONS.
    ------------------------------------------------

 NO OUTPUT CONTROL FOR STRESS PERIOD   43   TIME STEP   22
 
 SOLVING FOR HEAD 
                                                   Max.-Head-Change                         Max.-Flux-Residual
  Residual-Control   Outer-Iter.   Inner-Iter.     Column Row Layer    Maximum-Head-Change  Column Row Layer    Maximum-Flux-Residual          L2-NORM 
          0                 1           2             5    6     1       0.1038701358E-01       5    6    1         0.5568875814E+00      0.1419034151E+01
          0                 2           2             4    7     1      -0.1670600514E-01       5    6    1        -0.9132887263E+00      0.2209663396E+01
          0                 3           2             5    8     1      -0.3699805266E-01       5    8    1        -0.2037171661E+01      0.4868847512E+01
          0                 4           2             4    7     1       0.3925331159E-01       5    8    1         0.2171065412E+01      0.5307740877E+01
          0                 5           2             4    7     1      -0.1575241977E-02       4    7    1        -0.8942196566E-01      0.2174813196E+00
          0                 6           1             4    7     1       0.1943779269E-04       4    7    1         0.1134189914E-02      0.2758285195E-02

    ------------------------------------------------
       NWT REQUIRED            6 OUTER ITERATIONS 
       AND A TOTAL OF         11 INNER ITERATIONS.
    ------------------------------------------------

 NO OUTPUT CONTROL FOR STRESS PERIOD   43   TIME STEP   23
 
 SOLVING FOR HEAD 
                                                   Max.-Head-Change                         Max.-Flux-Residual
  Residual-Control   Outer-Iter.   Inner-Iter.     Column Row Layer    Maximum-Head-Change  Column Row Layer    Maximum-Flux-Residual          L2-NORM 
          0                 1           2             5    6     1       0.1051512116E-01       5    6    1         0.5638138517E+00      0.1434975073E+01
          0                 2           2             4    7     1      -0.1672396410E-01       5    6    1        -0.9142984497E+00      0.2182919511E+01
          0                 3           2             5    8     1      -0.3850263353E-01       5    8    1        -0.2122533078E+01      0.4903988951E+01
          0                 4           2             4    7     1       0.3924105507E-01       5    8    1         0.2176724045E+01      0.5309188912E+01
          0                 5           2             4    7     1      -0.1569087812E-02       4    7    1        -0.8905435844E-01      0.2174002109E+00
          0                 6           1             4    7     1       0.1936185400E-04       4    7    1         0.1129432939E-02      0.2757158787E-02

    ------------------------------------------------
       NWT REQUIRED            6 OUTER ITERATIONS 
       AND A TOTAL OF         11 INNER ITERATIONS.
    ------------------------------------------------

 NO OUTPUT CONTROL FOR STRESS PERIOD   43   TIME STEP   24
 
 SOLVING FOR HEAD 
                                                   Max.-Head-Change                         Max.-Flux-Residual
  Residual-Control   Outer-Iter.   Inner-Iter.     Column Row Layer    Maximum-Head-Change  Column Row Layer    Maximum-Flux-Residual          L2-NORM 
          0                 1           2             5    8     1       0.1128168712E-01       5    8    1         0.6071084517E+00      0.1478379170E+01
          0                 2           2             4    7     1      -0.1674060453E-01       5    6    1        -0.9151927694E+00      0.2176893396E+01
          0                 3           2             5    8     1      -0.3971217345E-01       5    8    1        -0.2191154270E+01      0.4933205862E+01
          0                 4           2             4    7     1       0.3923044475E-01       5    7    1         0.2165475968E+01      0.5295844438E+01
          0                 5           2             4    7     1      -0.1563062769E-02       4    7    1        -0.8869852853E-01      0.2136309595E+00
          0                 6           1             5    8     1      -0.1147587992E-03       5    8    1        -0.6912954291E-02      0.7355534467E-02
          0                 7           1             5    8     1       0.1417192184E-05       5    8    1         0.8686824776E-04      0.9347786160E-04

    ------------------------------------------------
       NWT REQUIRED            7 OUTER ITERATIONS 
       AND A TOTAL OF         12 INNER ITERATIONS.
    ------------------------------------------------

 NO OUTPUT CONTROL FOR STRESS PERIOD   43   TIME STEP   25
 
 SOLVING FOR HEAD 
                                                   Max.-Head-Change                         Max.-Flux-Residual
  Residual-Control   Outer-Iter.   Inner-Iter.     Column Row Layer    Maximum-Head-Change  Column Row Layer    Maximum-Flux-Residual          L2-NORM 
          0                 1           2             5    8     1       0.1292019235E-01       5    8    1         0.6973779687E+00      0.1529222510E+01
          0                 2           2             4    7     1      -0.1675599600E-01       5    6    1        -0.9159992006E+00      0.2173076336E+01
          0                 3           2             5    8     1      -0.3964557463E-01       5    8    1        -0.2187385566E+01      0.4930983664E+01
          0                 4           2             4    7     1       0.3924611146E-01       4    7    1         0.2165338520E+01      0.5251047487E+01
          0                 5           2             4    7     1      -0.1561329825E-02       4    8    1        -0.8858550615E-01      0.1982400797E+00
          0                 6           1             5    8     1       0.2051157897E-04       5    8    1         0.1160777847E-02      0.2769163266E-02

    ------------------------------------------------
       NWT REQUIRED            6 OUTER ITERATIONS 
       AND A TOTAL OF         11 INNER ITERATIONS.
    ------------------------------------------------

 NO OUTPUT CONTROL FOR STRESS PERIOD   43   TIME STEP   26
 
 SOLVING FOR HEAD 
                                                   Max.-Head-Change                         Max.-Flux-Residual
  Residual-Control   Outer-Iter.   Inner-Iter.     Column Row Layer    Maximum-Head-Change  Column Row Layer    Maximum-Flux-Residual          L2-NORM 
          0                 1           2             5    8     1       0.1324964786E-01       5    8    1         0.7153431785E+00      0.1549526786E+01
          0                 2           2             4    7     1      -0.1677932331E-01       5    6    1        -0.9167371810E+00      0.2173771021E+01
          0                 3           2             5    8     1      -0.3962994131E-01       5    8    1        -0.2186506559E+01      0.4929993415E+01
          0                 4           2             4    7     1       0.3924317438E-01       4    7    1         0.2165184560E+01      0.5242281661E+01
          0                 5           2             4    7     1      -0.1561091054E-02       4    8    1        -0.8857993719E-01      0.1996330184E+00
          0                 6           1             5    8     1       0.8773239761E-04       5    8    1         0.5080010697E-02      0.5670925662E-02

    ------------------------------------------------
       NWT REQUIRED            6 OUTER ITERATIONS 
       AND A TOTAL OF         11 INNER ITERATIONS.
    ------------------------------------------------

 NO OUTPUT CONTROL FOR STRESS PERIOD   43   TIME STEP   27
 
 SOLVING FOR HEAD 
                                                   Max.-Head-Change                         Max.-Flux-Residual
  Residual-Control   Outer-Iter.   Inner-Iter.     Column Row Layer    Maximum-Head-Change  Column Row Layer    Maximum-Flux-Residual          L2-NORM 
          0                 1           2             5    8     1       0.1327401779E-01       5    8    1         0.7164668913E+00      0.1561902921E+01
          0                 2           2             4    7     1      -0.1679284302E-01       5    6    1        -0.9174211286E+00      0.2175404568E+01
          0                 3           2             5    8     1      -0.3962677635E-01       5    8    1        -0.2186332940E+01      0.4929535365E+01
          0                 4           2             4    7     1       0.3924138011E-01       4    7    1         0.2165085352E+01      0.5241868528E+01
          0                 5           2             4    7     1      -0.1561017105E-02       4    8    1        -0.8857585005E-01      0.1996654373E+00
          0                 6           1             5    8     1       0.8915121376E-04       5    8    1         0.5162732760E-02      0.5745456713E-02

    ------------------------------------------------
       NWT REQUIRED            6 OUTER ITERATIONS 
       AND A TOTAL OF         11 INNER ITERATIONS.
    ------------------------------------------------

 NO OUTPUT CONTROL FOR STRESS PERIOD   43   TIME STEP   28
 
 SOLVING FOR HEAD 
                                                   Max.-Head-Change                         Max.-Flux-Residual
  Residual-Control   Outer-Iter.   Inner-Iter.     Column Row Layer    Maximum-Head-Change  Column Row Layer    Maximum-Flux-Residual          L2-NORM 
          0                 1           2             5    8     1       0.1330027695E-01       5    8    1         0.7177049209E+00      0.1573988854E+01
          0                 2           2             4    7     1      -0.1680588075E-01       5    6    1        -0.9180618081E+00      0.2176925832E+01
          0                 3           2             5    8     1      -0.3962417889E-01       5    8    1        -0.2186190121E+01      0.4929175426E+01
          0                 4           2             4    7     1       0.3924008624E-01       4    7    1         0.2165013763E+01      0.5241511494E+01
          0                 5           2             4    7     1      -0.1560962851E-02       4    8    1        -0.8857289883E-01      0.1997085693E+00
          0                 6           1             5    8     1       0.9068883797E-04       5    8    1         0.5252381275E-02      0.5826176859E-02

    ------------------------------------------------
       NWT REQUIRED            6 OUTER ITERATIONS 
       AND A TOTAL OF         11 INNER ITERATIONS.
    ------------------------------------------------

 NO OUTPUT CONTROL FOR STRESS PERIOD   43   TIME STEP   29
 
 SOLVING FOR HEAD 
                                                   Max.-Head-Change                         Max.-Flux-Residual
  Residual-Control   Outer-Iter.   Inner-Iter.     Column Row Layer    Maximum-Head-Change  Column Row Layer    Maximum-Flux-Residual          L2-NORM 
          0                 1           2             5    8     1       0.1332823959E-01       5    8    1         0.7190461745E+00      0.1585781721E+01
          0                 2           2             4    7     1      -0.1681854090E-01       5    6    1        -0.9186662129E+00      0.2178355865E+01
          0                 3           2             5    8     1      -0.3962195965E-01       5    8    1        -0.2186067777E+01      0.4928884848E+01
          0                 4           2             4    7     1       0.3923912954E-01       4    7    1         0.2164960788E+01      0.5241185954E+01
          0                 5           2             4    7     1      -0.1567968058E-02       4    8    1        -0.8897030375E-01      0.2005918459E+00
          0                 6           1             5    8     1       0.8565295779E-04       5    8    1         0.4967515138E-02      0.5316581853E-02

    ------------------------------------------------
       NWT REQUIRED            6 OUTER ITERATIONS 
       AND A TOTAL OF         11 INNER ITERATIONS.
    ------------------------------------------------

 NO OUTPUT CONTROL FOR STRESS PERIOD   43   TIME STEP   30



 STREAM LISTING     PERIOD     43   STEP       30

 LAYER ROW COL. STREAM  RCH.  FLOW INTO     FLOW TO   FLOW OUT OF   OVRLND.     DIRECT     STREAM       STREAM     STREAM     STREAM   STREAMBED  STREAMBED
                SEG.NO.  NO.  STRM. RCH.    AQUIFER    STRM. RCH.    RUNOFF     PRECIP       ET          HEAD       DEPTH      WIDTH   CONDCTNC.   GRADIENT

   1    1    1     1     1    2.1749E+01  2.2965E-01   2.1520E+01  0.000E+00  0.000E+00  0.000E+00  1.09418E+03  1.128E+00  1.236E+01  5.564E-02  1.376E+00
   1    2    2     1     2    2.1520E+01  3.5497E-01   2.1165E+01  0.000E+00  0.000E+00  0.000E+00  1.08918E+03  1.123E+00  1.230E+01  8.610E-02  1.374E+00
   1    3    3     1     3    2.1165E+01  3.0207E-01   2.0863E+01  0.000E+00  0.000E+00  0.000E+00  1.08354E+03  1.117E+00  1.223E+01  7.337E-02  1.372E+00
   1    3    4     1     4    2.0863E+01  2.7761E-01   2.0585E+01  0.000E+00  0.000E+00  0.000E+00  1.07852E+03  1.112E+00  1.216E+01  6.751E-02  1.371E+00
   1    4    5     2     1    1.8585E+01  3.1244E-01   1.8273E+01  0.000E+00  0.000E+00  0.000E+00  1.07294E+03  1.006E+00  1.200E+01  7.800E-02  1.335E+00
   1    5    6     2     2    1.8273E+01  2.3979E-01   1.8033E+01  0.000E+00  0.000E+00  0.000E+00  1.06751E+03  9.966E-01  1.200E+01  6.000E-02  1.332E+00
   1    6    6     2     3    1.8033E+01  2.3932E-01   1.7793E+01  0.000E+00  0.000E+00  0.000E+00  1.06278E+03  9.887E-01  1.200E+01  6.000E-02  1.330E+00
   1    7    6     2     4    1.7793E+01  2.3884E-01   1.7555E+01  0.000E+00  0.000E+00  0.000E+00  1.05806E+03  9.807E-01  1.200E+01  6.000E-02  1.327E+00
   1    8    6     2     5    1.7555E+01  2.3837E-01   1.7316E+01  0.000E+00  0.000E+00  0.000E+00  1.05333E+03  9.728E-01  1.200E+01  6.000E-02  1.324E+00
   1    3    5     3     1    2.0000E+00  2.8252E-01   1.7175E+00  0.000E+00  0.000E+00  0.000E+00  1.07555E+03  1.909E+00  9.636E+00  7.227E-02  1.955E+00
   1    3    6     3     2    1.7175E+00  2.4905E-01   1.4684E+00  0.000E+00  0.000E+00  0.000E+00  1.07264E+03  1.727E+00  8.909E+00  6.682E-02  1.864E+00
   1    3    7     3     3    1.4684E+00  1.9718E-01   1.2712E+00  0.000E+00  0.000E+00  0.000E+00  1.06987E+03  1.555E+00  8.218E+00  5.547E-02  1.777E+00
   1    4    8     3     4    1.2712E+00  2.2567E-01   1.0456E+00  0.000E+00  0.000E+00  0.000E+00  1.06682E+03  1.364E+00  7.455E+00  6.709E-02  1.682E+00
   1    5    8     3     5    1.0456E+00  1.5790E-01   8.8768E-01  0.000E+00  0.000E+00  0.000E+00  1.06362E+03  1.164E+00  6.655E+00  4.991E-02  1.582E+00
   1    6    8     3     6    8.8768E-01  5.5980E-02   8.3170E-01  0.000E+00  0.000E+00  0.000E+00  1.06158E+03  1.036E+00  6.145E+00  1.844E-02  1.518E+00
   1    5   10     4     1    1.0000E+01  9.0919E-02   9.9091E+00  0.000E+00  0.000E+00  0.000E+00  1.07836E+03  6.368E-01  1.000E+01  2.500E-02  1.212E+00
   1    5    9     4     2    9.9091E+00  1.8158E-01   9.7275E+00  0.000E+00  0.000E+00  0.000E+00  1.07154E+03  6.315E-01  1.000E+01  5.000E-02  1.211E+00
   1    6    8     4     3    9.7275E+00  1.2689E-01   9.6006E+00  0.000E+00  0.000E+00  0.000E+00  1.06381E+03  6.256E-01  1.000E+01  3.500E-02  1.209E+00
   1    6    8     5     1    1.0432E+01  2.2686E-01   1.0205E+01  0.000E+00  0.000E+00  0.000E+00  1.05868E+03  6.790E-01  1.542E+01  6.166E-02  1.226E+00
   1    7    7     5     2    1.0205E+01  2.7894E-01   9.9265E+00  0.000E+00  0.000E+00  0.000E+00  1.05417E+03  6.732E-01  1.519E+01  7.594E-02  1.224E+00
   1    8    7     5     3    9.9265E+00  1.9221E-01   9.7343E+00  0.000E+00  0.000E+00  0.000E+00  1.04992E+03  6.676E-01  1.497E+01  5.241E-02  1.223E+00
   1    8    6     5     4    9.7343E+00  1.3577E-01   9.5985E+00  0.000E+00  0.000E+00  0.000E+00  1.04691E+03  6.637E-01  1.482E+01  3.706E-02  1.221E+00
   1    9    6     6     1    9.5985E+00  2.2097E-01   9.3776E+00  0.000E+00  0.000E+00  0.000E+00  1.04341E+03  6.828E-01  1.200E+01  6.000E-02  1.228E+00
   1   10    7     6     2    9.3776E+00  2.2039E-01   9.1572E+00  0.000E+00  0.000E+00  0.000E+00  1.03885E+03  6.732E-01  1.200E+01  6.000E-02  1.224E+00
   1   11    7     6     3    9.1572E+00  2.1981E-01   8.9374E+00  0.000E+00  0.000E+00  0.000E+00  1.03430E+03  6.636E-01  1.200E+01  6.000E-02  1.221E+00
   1   12    7     6     4    8.9374E+00  2.1923E-01   8.7181E+00  0.000E+00  0.000E+00  0.000E+00  1.02974E+03  6.539E-01  1.200E+01  6.000E-02  1.218E+00
   1   13    7     6     5    8.7181E+00  3.3444E-03   8.7148E+00  0.000E+00  0.000E+00  0.000E+00  1.02656E+03  6.489E-01  1.200E+01  2.400E-02  4.645E-02
   1   14    9     7     1    1.5000E+02  1.4059E+00   1.4859E+02  0.000E+00  0.000E+00  0.000E+00  1.03987E+03  2.288E+00  5.529E+01  5.593E-01  8.379E-01
   1   13    8     7     2    1.4859E+02  2.0499E+00   1.4654E+02  0.000E+00  0.000E+00  0.000E+00  1.03478E+03  2.278E+00  5.525E+01  6.147E-01  1.112E+00
   1   13    7     7     3    1.4654E+02  1.8250E+00   1.4472E+02  0.000E+00  0.000E+00  0.000E+00  1.02969E+03  2.268E+00  5.521E+01  5.583E-01  1.090E+00
   1   13    6     8     1    1.5343E+02  1.1677E+00   1.5227E+02  0.000E+00  0.000E+00  0.000E+00  1.02471E+03  2.837E+00  4.113E+01  4.192E-01  9.286E-01
   1   13    5     8     2    1.5227E+02  4.1423E-01   1.5185E+02  0.000E+00  0.000E+00  0.000E+00  1.01846E+03  2.831E+00  4.105E+01  4.183E-01  3.300E-01
   1   13    4     8     3    1.5185E+02 -1.6069E+00   1.5346E+02  0.000E+00  0.000E+00  0.000E+00  1.01221E+03  2.835E+00  4.111E+01  4.190E+00 -1.278E-01
   1   13    3     8     4    1.5346E+02 -3.2435E+00   1.5670E+02  0.000E+00  0.000E+00  0.000E+00  1.00598E+03  2.852E+00  4.136E+01  4.214E+00 -2.565E-01
   1   13    2     8     5    1.5670E+02 -2.5090E+00   1.5921E+02  0.000E+00  0.000E+00  0.000E+00  9.99747E+02  2.872E+00  4.164E+01  4.244E+00 -1.971E-01
   1   13    1     8     6    1.5921E+02 -1.9991E+00   1.6121E+02  0.000E+00  0.000E+00  0.000E+00  9.94762E+02  2.887E+00  4.187E+01  2.560E+00 -2.603E-01
   1    8    6     9     1    1.7316E+01  0.0000E+00   1.7316E+01  0.000E+00  0.000E+00  0.000E+00  1.08190E+03  3.150E+00  4.000E+00  0.000E+00  2.050E+00
   1    8    5     9     2    1.7316E+01  0.0000E+00   1.7316E+01  0.000E+00  0.000E+00  0.000E+00  1.08140E+03  3.150E+00  4.000E+00  0.000E+00  2.050E+00





UNSATURATED ZONE PACKAGE VOLUMETRIC BUDGET FOR  TIME STEP    30 STRESS PERIOD   43
  ------------------------------------------------------------------------------



     CUMULATIVE VOLUMES      L**3       RATES FOR THIS TIME STEP      L**3/T
     ------------------                 ------------------------

           IN:                                      IN:
           ---                                      ---
        INFILTRATION =  1844790964.7774          INFILTRATION =          23.3214

          OUT:                                     OUT:
          ----                                     ----
              UZF ET =  1377528028.6058                UZF ET =          23.3175
        UZF RECHARGE =    89935077.6917          UZF RECHARGE =           0.1159

            IN - OUT =   377327858.4800              IN - OUT =          -0.1120

          STORAGE:                                 STORAGE:
          --------                                 --------
      STORAGE CHANGE =   377332423.3286        STORAGE CHANGE =          -0.1120

 PERCENT DISCREPANCY IS DIFFERENCE BETWEEN IN-OUT MINUS CHANGE IN STORAGE
 DIVIDED BY THE AVERAGE OF IN AND OUT TIMES 100

 PERCENT DISCREPANCY =          -0.00     PERCENT DISCREPANCY =           0.00






1
  VOLUMETRIC BUDGET FOR AGRICULTURAL FIELDS AT  END OF TIME STEP   30, STRESS PERIOD  43
  ------------------------------------------------------------------------------

     CUMULATIVE VOLUMES      L**3       RATES FOR THIS TIME STEP      L**3/T
     ------------------                 ------------------------

           IN:                                      IN:
           ---                                      ---
               AG WELLS  =  1116613120.0000                 AG WELLS  =           5.1573
      DIVERSION SEGMENTS =   634705408.0000        DIVERSION SEGMENTS =          17.3163
       IRRIGATION PONDS  =           0.0000         IRRIGATION PONDS  =           0.0000
           GW IRRIGATION =           0.0000             GW IRRIGATION =           0.0000
           SW IRRIGATION =           0.0000             SW IRRIGATION =           0.0000
        SYSTEM LOSSES GW =           0.0000          SYSTEM LOSSES GW =           0.0000
        SYSTEM LOSSES SW =           0.0000          SYSTEM LOSSES SW =           0.0000

                TOTAL IN =  1751318528.0000                  TOTAL IN =          22.4735

          OUT:                                     OUT:
          ----                                     ----
               AG WELLS  =           0.0000                 AG WELLS  =           0.0000
      DIVERSION SEGMENTS =           0.0000        DIVERSION SEGMENTS =           0.0000
       IRRIGATION PONDS  =           0.0000         IRRIGATION PONDS  =           0.0000
           GW IRRIGATION =  1116613120.0000             GW IRRIGATION =           5.1573
           SW IRRIGATION =   634717824.0000             SW IRRIGATION =          17.3166
        SYSTEM LOSSES GW =           0.0000          SYSTEM LOSSES GW =           0.0000
        SYSTEM LOSSES SW =           0.0000          SYSTEM LOSSES SW =           0.0000

               TOTAL OUT =  1751330944.0000                 TOTAL OUT =          22.4739

                IN - OUT =      -12416.0000                  IN - OUT =      -3.4523E-04

     PERCENT DISCREPANCY =          -0.00         PERCENT DISCREPANCY =          -0.00



1
  VOLUMETRIC BUDGET FOR ENTIRE MODEL AT END OF TIME STEP   30, STRESS PERIOD  43
  ------------------------------------------------------------------------------

     CUMULATIVE VOLUMES      L**3       RATES FOR THIS TIME STEP      L**3/T
     ------------------                 ------------------------

           IN:                                      IN:
           ---                                      ---
             STORAGE     =  1736563200.0000               STORAGE     =           3.7448
       CONSTANT HEAD     =           0.0000         CONSTANT HEAD     =           0.0000
     HEAD DEP BOUNDS     =    31927882.0000       HEAD DEP BOUNDS     =           0.2905
      STREAM LEAKAGE     =  1333143168.0000        STREAM LEAKAGE     =          12.5809
        UZF RECHARGE     =    89935088.0000          UZF RECHARGE     =           0.1159
               GW ET     =           0.0000                 GW ET     =           0.0000
     SURFACE LEAKAGE     =           0.0000       SURFACE LEAKAGE     =           0.0000
           AG WELLS      =           0.0000             AG WELLS      =           0.0000

                TOTAL IN =  3191569408.0000                  TOTAL IN =          16.7322

          OUT:                                     OUT:
          ----                                     ----
             STORAGE     =   964267008.0000               STORAGE     =           1.9285
       CONSTANT HEAD     =           0.0000         CONSTANT HEAD     =           0.0000
     HEAD DEP BOUNDS     =    31818608.0000       HEAD DEP BOUNDS     =           0.2866
      STREAM LEAKAGE     =  1078835968.0000        STREAM LEAKAGE     =           9.3586
        UZF RECHARGE     =           0.0000          UZF RECHARGE     =           0.0000
               GW ET     =           0.0000                 GW ET     =           0.0000
     SURFACE LEAKAGE     =           0.0000       SURFACE LEAKAGE     =           0.0000
           AG WELLS      =  1116613120.0000             AG WELLS      =           5.1573

               TOTAL OUT =  3191534592.0000                 TOTAL OUT =          16.7309

                IN - OUT =       34816.0000                  IN - OUT =       1.2245E-03

     PERCENT DISCREPANCY =           0.00         PERCENT DISCREPANCY =           0.01






         TIME SUMMARY AT END OF TIME STEP   30 IN STRESS PERIOD   43
                    SECONDS     MINUTES      HOURS       DAYS        YEARS
                    -----------------------------------------------------------
   TIME STEP LENGTH  87667.      1461.1      24.352      1.0147     2.77799E-03
 STRESS PERIOD TIME 2.63000E+06  43833.      730.56      30.440     8.33397E-02
         TOTAL TIME 1.10545E+08 1.84242E+06  30707.      1279.5      3.5030    
1
1
                            STRESS PERIOD NO.   44, LENGTH =   2630000.    
                            -----------------------------------------------

                              NUMBER OF TIME STEPS =    30

                               MULTIPLIER FOR DELT =     1.000

                            INITIAL TIME STEP SIZE =   87666.66    

 REUSING NON-PARAMETER GHB CELLS FROM LAST STRESS PERIOD

      2 GHB CELLS

 REUSING STREAM SEGMENT DATA FROM LAST STRESS PERIOD



            AREAL INFILTRATION RATE
 READING ON UNIT   19 WITH FORMAT: (FREE)              

            1           2           3           4           5           6           7           8           9          10
 ........................................................................................................................
   1   1.0000E-10  2.0000E-10   0.000       0.000       0.000       0.000       0.000       0.000       0.000       0.000    
   2   2.0000E-10  1.0000E-10  2.0000E-10   0.000       0.000      8.0000E-10  8.0000E-10  5.0000E-10   0.000       0.000    
   3    0.000      5.0000E-10  1.0000E-10  1.0000E-10  8.0000E-10  8.0000E-10  5.0000E-10  5.0000E-10   0.000       0.000    
   4   8.0000E-10  5.0000E-10  1.0000E-10  1.0000E-10  1.0000E-10  1.0000E-10  1.0000E-10  1.0000E-10  2.0000E-10   0.000    
   5   8.0000E-10  5.0000E-10  1.0000E-10  1.0000E-10  1.0000E-10  1.0000E-10  1.0000E-10  1.0000E-10  1.0000E-10  1.0000E-10
   6   8.0000E-10  5.0000E-10  5.0000E-10  2.0000E-10  2.0000E-10  1.0000E-10  1.0000E-10  1.0000E-10  1.0000E-10  5.0000E-10
   7   8.0000E-10  5.0000E-10  5.0000E-10  2.0000E-10  2.0000E-10  1.0000E-10  1.0000E-10  2.0000E-10  2.0000E-10   0.000    
   8    0.000      5.0000E-10  5.0000E-10  2.0000E-10  2.0000E-10  1.0000E-10  1.0000E-10  2.0000E-10  5.0000E-10   0.000    
   9    0.000      5.0000E-10  5.0000E-10  2.0000E-10  2.0000E-10  1.0000E-10  1.0000E-10  2.0000E-10  5.0000E-10   0.000    
  10    0.000      5.0000E-10  5.0000E-10  2.0000E-10  2.0000E-10  1.0000E-10  1.0000E-10  2.0000E-10  5.0000E-10  8.0000E-10
  11    0.000      1.0000E-10  1.0000E-10  1.0000E-10  1.0000E-10  1.0000E-10  1.0000E-10  2.0000E-10  5.0000E-10   0.000    
  12   1.0000E-10  1.0000E-10  1.0000E-10  1.0000E-10  1.0000E-10  1.0000E-10  1.0000E-10  1.0000E-10  2.0000E-10   0.000    
  13   1.0000E-10  1.0000E-10  2.0000E-10  2.0000E-10  2.0000E-10  2.0000E-10  2.0000E-10  1.0000E-10  1.0000E-10   0.000    
  14    0.000      2.0000E-10  5.0000E-10  5.0000E-10  5.0000E-10  5.0000E-10  5.0000E-10  2.0000E-10  1.0000E-10   0.000    
  15    0.000       0.000      8.0000E-10  8.0000E-10  8.0000E-10  8.0000E-10   0.000       0.000       0.000       0.000    

                  ET RATE =  4.000000E-07

 USING ET EXTINCTION DEPTH FROM PREVIOUS STRESS PERIOD. CURRENT PERIOD IS:      44

 USING EXTINCTION WATER CONTENT FROM PREVIOUS STRESS PERIOD. CURRENT PERIOD IS:      44

 USING AIR ENTRY PRESSURE FROM PREVIOUS STRESS PERIOD. CURRENT PERIOD IS:      44

 USING ROOT PRESSURE HEAD FROM PREVIOUS STRESS PERIOD. CURRENT PERIOD IS:      44

 USING ROOT ACTIVITY FROM PREVIOUS STRESS PERIOD. CURRENT PERIOD IS:      44

 PROCESSING AG STRESS PERIOD DATA

 READING AG STRESS PERIOD DATA

 READING IRRIGATION SEGMENT

 READING IRRIGATION WELL

 READING SUPPLEMENTAL WELL

 NO IRRPOND OR REUSING IRRPOND DATA FROM LAST STRESS PERIOD

 END PROCESSING AG STRESS PERIOD DATA OPTIONS
 
 SOLVING FOR HEAD 
                                                   Max.-Head-Change                         Max.-Flux-Residual
  Residual-Control   Outer-Iter.   Inner-Iter.     Column Row Layer    Maximum-Head-Change  Column Row Layer    Maximum-Flux-Residual          L2-NORM 
          0                 1           2             5    8     1       0.1335786873E-01       5    8    1         0.7205026104E+00      0.1466750783E+01
          0                 2           2             4    7     1      -0.2658145775E+00       5    6    1        -0.1428264808E+02      0.3488854784E+02
          0                 3           2             4    7     1       0.1809684103E-01       5    6    1         0.9997657895E+00      0.2313026215E+01
          0                 4           2             4    7     1      -0.7200924848E-03       5    6    1        -0.4089057400E-01      0.9460344344E-01
          0                 5           1             4    7     1       0.8879048853E-05       5    6    1         0.5182094451E-03      0.1199762758E-02

    ------------------------------------------------
       NWT REQUIRED            5 OUTER ITERATIONS 
       AND A TOTAL OF          9 INNER ITERATIONS.
    ------------------------------------------------

 NO OUTPUT CONTROL FOR STRESS PERIOD   44   TIME STEP    1
 
 SOLVING FOR HEAD 
                                                   Max.-Head-Change                         Max.-Flux-Residual
  Residual-Control   Outer-Iter.   Inner-Iter.     Column Row Layer    Maximum-Head-Change  Column Row Layer    Maximum-Flux-Residual          L2-NORM 
          0                 1           2             5    6     1       0.1819242609E-01       5    6    1         0.9845301067E+00      0.2168596647E+01
          0                 2           2             4    7     1      -0.4696209378E-01       5    6    1        -0.2566563694E+01      0.6274978505E+01
          0                 3           2             4    7     1      -0.4500727585E-02       4    7    1        -0.2416327661E+00      0.5899831536E+00
          0                 4           2             4    7     1       0.6114808268E-02       4    7    1         0.3373663291E+00      0.8260531769E+00
          0                 5           2             4    7     1      -0.1766551097E-01       4    7    1        -0.1001793751E+01      0.2453864767E+01
          0                 6           2             4    7     1       0.2179831155E-03       4    7    1         0.1270408215E-01      0.3112252731E-01
          0                 7           1             4    7     1       0.3203938981E-05       5    8    1         0.1870375390E-03      0.4586541660E-03

    ------------------------------------------------
       NWT REQUIRED            7 OUTER ITERATIONS 
       AND A TOTAL OF         13 INNER ITERATIONS.
    ------------------------------------------------

 NO OUTPUT CONTROL FOR STRESS PERIOD   44   TIME STEP    2
 
 SOLVING FOR HEAD 
                                                   Max.-Head-Change                         Max.-Flux-Residual
  Residual-Control   Outer-Iter.   Inner-Iter.     Column Row Layer    Maximum-Head-Change  Column Row Layer    Maximum-Flux-Residual          L2-NORM 
          0                 1           2             5    6     1       0.1929627822E-01       5    6    1         0.1044789970E+01      0.2293368356E+01
          0                 2           2             4    7     1      -0.1143848726E+00       5    6    1        -0.6188692362E+01      0.1512753115E+02
          0                 3           2             4    7     1      -0.8662125978E-01       4    7    1        -0.4649105036E+01      0.1138299784E+02
          0                 4           2             4    7     1       0.5899383843E-02       4    7    1         0.3254762965E+00      0.7968376732E+00
          0                 5           2             4    7     1      -0.2347978720E-03       4    7    1        -0.1331468715E-01      0.3259754343E-01
          0                 6           1             4    7     1       0.2897308825E-05       4    7    1         0.1688306725E-03      0.4151616788E-03

    ------------------------------------------------
       NWT REQUIRED            6 OUTER ITERATIONS 
       AND A TOTAL OF         11 INNER ITERATIONS.
    ------------------------------------------------

 NO OUTPUT CONTROL FOR STRESS PERIOD   44   TIME STEP    3
 
 SOLVING FOR HEAD 
                                                   Max.-Head-Change                         Max.-Flux-Residual
  Residual-Control   Outer-Iter.   Inner-Iter.     Column Row Layer    Maximum-Head-Change  Column Row Layer    Maximum-Flux-Residual          L2-NORM 
          0                 1           2             5    6     1       0.2421968034E-01       5    6    1         0.1314800533E+01      0.2835490969E+01
          0                 2           2             4    8     1      -0.5420343696E-01       5    6    1        -0.2977673405E+01      0.7263070710E+01
          0                 3           2             5    6     1       0.2980257130E-02       5    6    1         0.1685186534E+00      0.4099605086E+00
          0                 4           2             4    7     1      -0.2322159075E-01       5    6    1        -0.1317082075E+01      0.3225973526E+01
          0                 5           2             4    7     1       0.2863290504E-03       4    7    1         0.1668734671E-01      0.4090900330E-01
          0                 6           1             4    7     1       0.4211107643E-05       5    7    1         0.2474252001E-03      0.6194983530E-03

    ------------------------------------------------
       NWT REQUIRED            6 OUTER ITERATIONS 
       AND A TOTAL OF         11 INNER ITERATIONS.
    ------------------------------------------------

 NO OUTPUT CONTROL FOR STRESS PERIOD   44   TIME STEP    4
 
 SOLVING FOR HEAD 
                                                   Max.-Head-Change                         Max.-Flux-Residual
  Residual-Control   Outer-Iter.   Inner-Iter.     Column Row Layer    Maximum-Head-Change  Column Row Layer    Maximum-Flux-Residual          L2-NORM 
          0                 1           2             5    6     1       0.2534425928E-01       5    6    1         0.1375994898E+01      0.2976000499E+01
          0                 2           2             4    7     1      -0.1152654799E+00       5    6    1        -0.6259168650E+01      0.1527740610E+02
          0                 3           2             4    7     1      -0.7294105441E-01       4    7    1        -0.3914898650E+01      0.9582182997E+01
          0                 4           2             4    7     1       0.4967694463E-02       4    7    1         0.2740759229E+00      0.6707799157E+00
          0                 5           2             4    7     1      -0.1977162299E-03       4    7    1        -0.1121197031E-01      0.2744098413E-01
          0                 6           1             4    7     1       0.2439736640E-05       4    7    1         0.1421673123E-03      0.3495877862E-03

    ------------------------------------------------
       NWT REQUIRED            6 OUTER ITERATIONS 
       AND A TOTAL OF         11 INNER ITERATIONS.
    ------------------------------------------------

 NO OUTPUT CONTROL FOR STRESS PERIOD   44   TIME STEP    5
 
 SOLVING FOR HEAD 
                                                   Max.-Head-Change                         Max.-Flux-Residual
  Residual-Control   Outer-Iter.   Inner-Iter.     Column Row Layer    Maximum-Head-Change  Column Row Layer    Maximum-Flux-Residual          L2-NORM 
          0                 1           2             5    6     1       0.2961006476E-01       5    6    1         0.1609729730E+01      0.3466924533E+01
          0                 2           2             5    6     1      -0.5640357575E-01       5    6    1        -0.3102849024E+01      0.7545642644E+01
          0                 3           2             4    7     1      -0.4836997091E+00       4    7    1        -0.2596050573E+02      0.6358071033E+02
          0                 4           2             4    7     1       0.3294146767E-01       4    7    1         0.1817378644E+01      0.4451612900E+01
          0                 5           2             4    7     1      -0.1311089008E-02       5    8    1        -0.7436107597E-01      0.1821425711E+00
          0                 6           1             4    7     1       0.1617828749E-04       5    8    1         0.9432555944E-03      0.2310697504E-02

    ------------------------------------------------
       NWT REQUIRED            6 OUTER ITERATIONS 
       AND A TOTAL OF         11 INNER ITERATIONS.
    ------------------------------------------------

 NO OUTPUT CONTROL FOR STRESS PERIOD   44   TIME STEP    6
 
 SOLVING FOR HEAD 
                                                   Max.-Head-Change                         Max.-Flux-Residual
  Residual-Control   Outer-Iter.   Inner-Iter.     Column Row Layer    Maximum-Head-Change  Column Row Layer    Maximum-Flux-Residual          L2-NORM 
          0                 1           2             5    8     1       0.4369842070E-01       5    8    1         0.2391532470E+01      0.5072211557E+01
          0                 2           2             5    8     1      -0.3001314268E-01       5    8    1        -0.1657490946E+01      0.3932301965E+01
          0                 3           2             4    7     1      -0.2172523349E-01       4    7    1        -0.1166213834E+01      0.2854490688E+01
          0                 4           2             4    7     1       0.2196476067E-01       4    7    1         0.1211825766E+01      0.2967362471E+01
          0                 5           2             4    7     1      -0.1803654565E-01       4    7    1        -0.1022825988E+01      0.2505377523E+01
          0                 6           2             4    7     1      -0.1533589294E-02       4    7    1        -0.8696553426E-01      0.2130094544E+00
          0                 7           2             4    7     1      -0.6981791313E-03       4    7    1        -0.3959174371E-01      0.9697811173E-01
          0                 8           1             4    7     1       0.8628825546E-05       5    8    1         0.5034363639E-03      0.1233375076E-02

    ------------------------------------------------
       NWT REQUIRED            8 OUTER ITERATIONS 
       AND A TOTAL OF         15 INNER ITERATIONS.
    ------------------------------------------------

 NO OUTPUT CONTROL FOR STRESS PERIOD   44   TIME STEP    7
 
 SOLVING FOR HEAD 
                                                   Max.-Head-Change                         Max.-Flux-Residual
  Residual-Control   Outer-Iter.   Inner-Iter.     Column Row Layer    Maximum-Head-Change  Column Row Layer    Maximum-Flux-Residual          L2-NORM 
          0                 1           2             5    8     1       0.4297272711E-01       5    8    1         0.2350054402E+01      0.5023873084E+01
          0                 2           2             4    7     1      -0.1169737002E+00       5    8    1        -0.6421125403E+01      0.1559829254E+02
          0                 3           2             4    7     1      -0.6462746863E-01       4    7    1        -0.3468766153E+01      0.8482229569E+01
          0                 4           2             4    7     1       0.4401495433E-02       4    7    1         0.2428426369E+00      0.5937833059E+00
          0                 5           2             4    7     1      -0.1751812682E-03       4    7    1        -0.9934228917E-02      0.2429232806E-01
          0                 6           1             4    7     1       0.2161664515E-05       4    7    1         0.1259628220E-03      0.3098259128E-03

    ------------------------------------------------
       NWT REQUIRED            6 OUTER ITERATIONS 
       AND A TOTAL OF         11 INNER ITERATIONS.
    ------------------------------------------------

 NO OUTPUT CONTROL FOR STRESS PERIOD   44   TIME STEP    8
 
 SOLVING FOR HEAD 
                                                   Max.-Head-Change                         Max.-Flux-Residual
  Residual-Control   Outer-Iter.   Inner-Iter.     Column Row Layer    Maximum-Head-Change  Column Row Layer    Maximum-Flux-Residual          L2-NORM 
          0                 1           2             5    8     1       0.4630063820E-01       5    8    1         0.2532319615E+01      0.5429770678E+01
          0                 2           2             4    8     1      -0.1123146759E+00       5    8    1        -0.6176744100E+01      0.1498971070E+02
          0                 3           2             5    6     1       0.5168011357E-02       5    8    1         0.2926041993E+00      0.7074614938E+00
          0                 4           2             5    6     1      -0.2056401225E-03       5    8    1        -0.1196916437E-01      0.2893211160E-01
          0                 5           1             5    6     1       0.2535627976E-05       5    8    1         0.1518441704E-03      0.3673243902E-03

    ------------------------------------------------
       NWT REQUIRED            5 OUTER ITERATIONS 
       AND A TOTAL OF          9 INNER ITERATIONS.
    ------------------------------------------------

 NO OUTPUT CONTROL FOR STRESS PERIOD   44   TIME STEP    9
 
 SOLVING FOR HEAD 
                                                   Max.-Head-Change                         Max.-Flux-Residual
  Residual-Control   Outer-Iter.   Inner-Iter.     Column Row Layer    Maximum-Head-Change  Column Row Layer    Maximum-Flux-Residual          L2-NORM 
          0                 1           2             5    8     1       0.4729498541E-01       5    8    1         0.2585762191E+01      0.5575560369E+01
          0                 2           2             4    7     1      -0.1250133802E+00       5    8    1        -0.6863033196E+01      0.1666986498E+02
          0                 3           2             4    7     1      -0.6830389046E-02       4    7    1        -0.3668072249E+00      0.8842654937E+00
          0                 4           2             4    7     1       0.4651902770E-03       4    7    1         0.2568107662E-01      0.6185150286E-01
          0                 5           1             4    7     1      -0.1851474738E-04       4    7    1        -0.1050642917E-02      0.2531830204E-02

    ------------------------------------------------
       NWT REQUIRED            5 OUTER ITERATIONS 
       AND A TOTAL OF          9 INNER ITERATIONS.
    ------------------------------------------------

 NO OUTPUT CONTROL FOR STRESS PERIOD   44   TIME STEP   10
 
 SOLVING FOR HEAD 
                                                   Max.-Head-Change                         Max.-Flux-Residual
  Residual-Control   Outer-Iter.   Inner-Iter.     Column Row Layer    Maximum-Head-Change  Column Row Layer    Maximum-Flux-Residual          L2-NORM 
          0                 1           2             5    8     1       0.4899686048E-01       5    8    1         0.2678266403E+01      0.5800761046E+01
          0                 2           2             5    7     1      -0.1245052156E+00       5    8    1        -0.6837935940E+01      0.1660597673E+02
          0                 3           2             4    7     1      -0.5192152790E-02       4    7    1        -0.2788870008E+00      0.6690884869E+00
          0                 4           2             4    7     1       0.3536166533E-03       4    7    1         0.1952573346E-01      0.4676683746E-01
          0                 5           1             4    7     1      -0.1407407524E-04       4    7    1        -0.7988271673E-03      0.1914420060E-02

    ------------------------------------------------
       NWT REQUIRED            5 OUTER ITERATIONS 
       AND A TOTAL OF          9 INNER ITERATIONS.
    ------------------------------------------------

 NO OUTPUT CONTROL FOR STRESS PERIOD   44   TIME STEP   11
 
 SOLVING FOR HEAD 
                                                   Max.-Head-Change                         Max.-Flux-Residual
  Residual-Control   Outer-Iter.   Inner-Iter.     Column Row Layer    Maximum-Head-Change  Column Row Layer    Maximum-Flux-Residual          L2-NORM 
          0                 1           2             5    8     1       0.5055840751E-01       5    8    1         0.2763021445E+01      0.6010697597E+01
          0                 2           2             5    7     1      -0.1249115001E+00       5    8    1        -0.6860579092E+01      0.1665964964E+02
          0                 3           2             4    7     1      -0.5667486644E-02       4    7    1        -0.3044004077E+00      0.7311711337E+00
          0                 4           2             4    7     1       0.3859897145E-03       4    7    1         0.2131199135E-01      0.5112059550E-01
          0                 5           1             4    7     1      -0.1536253521E-04       4    7    1        -0.8719051471E-03      0.2092713756E-02

    ------------------------------------------------
       NWT REQUIRED            5 OUTER ITERATIONS 
       AND A TOTAL OF          9 INNER ITERATIONS.
    ------------------------------------------------

 NO OUTPUT CONTROL FOR STRESS PERIOD   44   TIME STEP   12
 
 SOLVING FOR HEAD 
                                                   Max.-Head-Change                         Max.-Flux-Residual
  Residual-Control   Outer-Iter.   Inner-Iter.     Column Row Layer    Maximum-Head-Change  Column Row Layer    Maximum-Flux-Residual          L2-NORM 
          0                 1           2             5    8     1       0.5207664566E-01       5    8    1         0.2845386010E+01      0.6216093094E+01
          0                 2           2             5    7     1      -0.1249909335E+00       5    8    1        -0.6865389811E+01      0.1666993453E+02
          0                 3           2             4    7     1      -0.5541752560E-02       4    7    1        -0.2976542560E+00      0.7144819926E+00
          0                 4           2             4    7     1       0.3774264748E-03       4    7    1         0.2083972415E-01      0.4994231049E-01
          0                 5           1             4    7     1      -0.1502171498E-04       4    7    1        -0.8525860253E-03      0.2042975143E-02

    ------------------------------------------------
       NWT REQUIRED            5 OUTER ITERATIONS 
       AND A TOTAL OF          9 INNER ITERATIONS.
    ------------------------------------------------

 NO OUTPUT CONTROL FOR STRESS PERIOD   44   TIME STEP   13
 
 SOLVING FOR HEAD 
                                                   Max.-Head-Change                         Max.-Flux-Residual
  Residual-Control   Outer-Iter.   Inner-Iter.     Column Row Layer    Maximum-Head-Change  Column Row Layer    Maximum-Flux-Residual          L2-NORM 
          0                 1           2             5    8     1       0.5352656565E-01       5    8    1         0.2923981186E+01      0.6414047353E+01
          0                 2           2             5    7     1      -0.1251452236E+00       5    8    1        -0.6874082701E+01      0.1669007714E+02
          0                 3           2             4    7     1      -0.5562222645E-02       4    7    1        -0.2987542007E+00      0.7169989009E+00
          0                 4           2             4    7     1       0.3788206085E-03       4    7    1         0.2091676906E-01      0.5011833270E-01
          0                 5           1             4    7     1      -0.1507720193E-04       4    7    1        -0.8557394167E-03      0.2050206339E-02

    ------------------------------------------------
       NWT REQUIRED            5 OUTER ITERATIONS 
       AND A TOTAL OF          9 INNER ITERATIONS.
    ------------------------------------------------

 NO OUTPUT CONTROL FOR STRESS PERIOD   44   TIME STEP   14
 
 SOLVING FOR HEAD 
                                                   Max.-Head-Change                         Max.-Flux-Residual
  Residual-Control   Outer-Iter.   Inner-Iter.     Column Row Layer    Maximum-Head-Change  Column Row Layer    Maximum-Flux-Residual          L2-NORM 
          0                 1           2             5    8     1       0.5491882111E-01       5    8    1         0.2999397240E+01      0.6605662773E+01
          0                 2           2             5    7     1      -0.1252771275E+00       5    8    1        -0.6881421035E+01      0.1670719932E+02
          0                 3           2             4    7     1      -0.5547157283E-02       4    7    1        -0.2979464619E+00      0.7148886569E+00
          0                 4           2             4    7     1       0.3757202175E-03       4    7    1         0.2074581326E-01      0.4968986703E-01
          0                 5           1             4    7     1      -0.1495380518E-04       4    7    1        -0.8487469272E-03      0.2032709226E-02

    ------------------------------------------------
       NWT REQUIRED            5 OUTER ITERATIONS 
       AND A TOTAL OF          9 INNER ITERATIONS.
    ------------------------------------------------

 NO OUTPUT CONTROL FOR STRESS PERIOD   44   TIME STEP   15
 
 SOLVING FOR HEAD 
                                                   Max.-Head-Change                         Max.-Flux-Residual
  Residual-Control   Outer-Iter.   Inner-Iter.     Column Row Layer    Maximum-Head-Change  Column Row Layer    Maximum-Flux-Residual          L2-NORM 
          0                 1           2             5    8     1       0.5625514297E-01       5    8    1         0.3071730875E+01      0.6791042480E+01
          0                 2           2             5    7     1      -0.1254095436E+00       5    8    1        -0.6888654261E+01      0.1672433943E+02
          0                 3           2             4    7     1      -0.5539053811E-02       4    7    1        -0.2975118765E+00      0.7137207434E+00
          0                 4           2             4    7     1       0.3751683172E-03       4    7    1         0.2071542228E-01      0.4960380255E-01
          0                 5           1             4    7     1      -0.1493183932E-04       4    7    1        -0.8475049963E-03      0.2028503376E-02

    ------------------------------------------------
       NWT REQUIRED            5 OUTER ITERATIONS 
       AND A TOTAL OF          9 INNER ITERATIONS.
    ------------------------------------------------

 NO OUTPUT CONTROL FOR STRESS PERIOD   44   TIME STEP   16
 
 SOLVING FOR HEAD 
                                                   Max.-Head-Change                         Max.-Flux-Residual
  Residual-Control   Outer-Iter.   Inner-Iter.     Column Row Layer    Maximum-Head-Change  Column Row Layer    Maximum-Flux-Residual          L2-NORM 
          0                 1           2             5    8     1       0.5753878896E-01       5    8    1         0.3141163768E+01      0.6970508074E+01
          0                 2           2             5    7     1      -0.1255387895E+00       5    8    1        -0.6895597413E+01      0.1674102003E+02
          0                 3           2             4    7     1      -0.5530979357E-02       4    7    1        -0.2970784018E+00      0.7125837621E+00
          0                 4           2             4    7     1       0.3746183934E-03       4    7    1         0.2068510814E-01      0.4952332935E-01
          0                 5           1             4    7     1      -0.1490995244E-04       4    7    1        -0.8462661849E-03      0.2025200125E-02

    ------------------------------------------------
       NWT REQUIRED            5 OUTER ITERATIONS 
       AND A TOTAL OF          9 INNER ITERATIONS.
    ------------------------------------------------

 NO OUTPUT CONTROL FOR STRESS PERIOD   44   TIME STEP   17
 
 SOLVING FOR HEAD 
                                                   Max.-Head-Change                         Max.-Flux-Residual
  Residual-Control   Outer-Iter.   Inner-Iter.     Column Row Layer    Maximum-Head-Change  Column Row Layer    Maximum-Flux-Residual          L2-NORM 
          0                 1           2             5    8     1       0.5877294732E-01       5    8    1         0.3207872993E+01      0.7144331859E+01
          0                 2           2             5    7     1      -0.1256649882E+00       5    8    1        -0.6902268201E+01      0.1675726050E+02
          0                 3           2             4    7     1      -0.5522941313E-02       4    7    1        -0.2966464722E+00      0.7114766227E+00
          0                 4           2             4    7     1       0.3740709492E-03       4    7    1         0.2065490126E-01      0.4944498567E-01
          0                 5           1             4    7     1      -0.1488816376E-04       4    7    1        -0.8450317173E-03      0.2021990166E-02

    ------------------------------------------------
       NWT REQUIRED            5 OUTER ITERATIONS 
       AND A TOTAL OF          9 INNER ITERATIONS.
    ------------------------------------------------

 NO OUTPUT CONTROL FOR STRESS PERIOD   44   TIME STEP   18
 
 SOLVING FOR HEAD 
                                                   Max.-Head-Change                         Max.-Flux-Residual
  Residual-Control   Outer-Iter.   Inner-Iter.     Column Row Layer    Maximum-Head-Change  Column Row Layer    Maximum-Flux-Residual          L2-NORM 
          0                 1           2             5    8     1       0.5996031446E-01       5    8    1         0.3272008317E+01      0.7312762173E+01
          0                 2           2             5    7     1      -0.1257882006E+00       5    8    1        -0.6908681599E+01      0.1677307557E+02
          0                 3           2             4    7     1      -0.5514947305E-02       4    7    1        -0.2962165330E+00      0.7103982855E+00
          0                 4           2             4    7     1       0.3735265043E-03       4    7    1         0.2062483283E-01      0.4936860584E-01
          0                 5           1             4    7     1      -0.1486649470E-04       4    7    1        -0.8438028813E-03      0.2018858354E-02

    ------------------------------------------------
       NWT REQUIRED            5 OUTER ITERATIONS 
       AND A TOTAL OF          9 INNER ITERATIONS.
    ------------------------------------------------

 NO OUTPUT CONTROL FOR STRESS PERIOD   44   TIME STEP   19
 
 SOLVING FOR HEAD 
                                                   Max.-Head-Change                         Max.-Flux-Residual
  Residual-Control   Outer-Iter.   Inner-Iter.     Column Row Layer    Maximum-Head-Change  Column Row Layer    Maximum-Flux-Residual          L2-NORM 
          0                 1           2             5    8     1       0.6110326192E-01       5    8    1         0.3333701759E+01      0.7476035820E+01
          0                 2           2             5    7     1      -0.1259085021E+00       5    8    1        -0.6914850811E+01      0.1678848052E+02
          0                 3           2             4    7     1      -0.5507003403E-02       4    7    1        -0.2957889406E+00      0.7093475512E+00
          0                 4           2             4    7     1       0.3729854718E-03       4    7    1         0.2059492781E-01      0.4929428654E-01
          0                 5           1             4    7     1      -0.1484496138E-04       4    7    1        -0.8425806827E-03      0.2015812138E-02

    ------------------------------------------------
       NWT REQUIRED            5 OUTER ITERATIONS 
       AND A TOTAL OF          9 INNER ITERATIONS.
    ------------------------------------------------

 NO OUTPUT CONTROL FOR STRESS PERIOD   44   TIME STEP   20
 
 SOLVING FOR HEAD 
                                                   Max.-Head-Change                         Max.-Flux-Residual
  Residual-Control   Outer-Iter.   Inner-Iter.     Column Row Layer    Maximum-Head-Change  Column Row Layer    Maximum-Flux-Residual          L2-NORM 
          0                 1           2             5    8     1       0.6220428530E-01       5    8    1         0.3393091883E+01      0.7634401963E+01
          0                 2           2             5    7     1      -0.1260259956E+00       5    8    1        -0.6920789693E+01      0.1680349217E+02
          0                 3           2             4    7     1      -0.5499114137E-02       4    7    1        -0.2953639681E+00      0.7083234662E+00
          0                 4           2             4    7     1       0.3724481609E-03       4    7    1         0.2056520535E-01      0.4922184976E-01
          0                 5           1             4    7     1      -0.1482357623E-04       4    7    1        -0.8413659389E-03      0.2012843524E-02

    ------------------------------------------------
       NWT REQUIRED            5 OUTER ITERATIONS 
       AND A TOTAL OF          9 INNER ITERATIONS.
    ------------------------------------------------

 NO OUTPUT CONTROL FOR STRESS PERIOD   44   TIME STEP   21
 
 SOLVING FOR HEAD 
                                                   Max.-Head-Change                         Max.-Flux-Residual
  Residual-Control   Outer-Iter.   Inner-Iter.     Column Row Layer    Maximum-Head-Change  Column Row Layer    Maximum-Flux-Residual          L2-NORM 
          0                 1           2             5    8     1       0.6326557377E-01       5    8    1         0.3450300291E+01      0.7788051027E+01
          0                 2           2             5    7     1      -0.1261407517E+00       5    8    1        -0.6926510405E+01      0.1681812256E+02
          0                 3           2             4    7     1      -0.5491285395E-02       4    7    1        -0.2949419592E+00      0.7073250134E+00
          0                 4           2             4    7     1       0.3719149719E-03       4    7    1         0.2053568950E-01      0.4915115359E-01
          0                 5           1             4    7     1      -0.1480235537E-04       4    7    1        -0.8401596028E-03      0.2009947968E-02

    ------------------------------------------------
       NWT REQUIRED            5 OUTER ITERATIONS 
       AND A TOTAL OF          9 INNER ITERATIONS.
    ------------------------------------------------

 NO OUTPUT CONTROL FOR STRESS PERIOD   44   TIME STEP   22
 
 SOLVING FOR HEAD 
                                                   Max.-Head-Change                         Max.-Flux-Residual
  Residual-Control   Outer-Iter.   Inner-Iter.     Column Row Layer    Maximum-Head-Change  Column Row Layer    Maximum-Flux-Residual          L2-NORM 
          0                 1           2             5    8     1       0.6428931608E-01       5    8    1         0.3505448291E+01      0.7937205266E+01
          0                 2           2             5    7     1      -0.1262528405E+00       5    8    1        -0.6932025078E+01      0.1683238694E+02
          0                 3           2             4    7     1      -0.5483520680E-02       4    7    1        -0.2945231266E+00      0.7063512289E+00
          0                 4           2             4    7     1       0.3713861433E-03       4    7    1         0.2050639518E-01      0.4908221941E-01
          0                 5           1             4    7     1      -0.1478130732E-04       4    7    1        -0.8389622867E-03      0.2007117076E-02

    ------------------------------------------------
       NWT REQUIRED            5 OUTER ITERATIONS 
       AND A TOTAL OF          9 INNER ITERATIONS.
    ------------------------------------------------

 NO OUTPUT CONTROL FOR STRESS PERIOD   44   TIME STEP   23
 
 SOLVING FOR HEAD 
                                                   Max.-Head-Change                         Max.-Flux-Residual
  Residual-Control   Outer-Iter.   Inner-Iter.     Column Row Layer    Maximum-Head-Change  Column Row Layer    Maximum-Flux-Residual          L2-NORM 
          0                 1           2             5    8     1       0.6527756031E-01       5    8    1         0.3558649368E+01      0.8082059697E+01
          0                 2           2             5    7     1      -0.1263623585E+00       5    8    1        -0.6937345061E+01      0.1684629856E+02
          0                 3           2             4    7     1      -0.5475825774E-02       4    7    1        -0.2941078098E+00      0.7054012395E+00
          0                 4           2             4    7     1       0.3708620696E-03       4    7    1         0.2047734619E-01      0.4901497525E-01
          0                 5           1             4    7     1      -0.1476044934E-04       4    7    1        -0.8377749969E-03      0.2004358275E-02

    ------------------------------------------------
       NWT REQUIRED            5 OUTER ITERATIONS 
       AND A TOTAL OF          9 INNER ITERATIONS.
    ------------------------------------------------

 NO OUTPUT CONTROL FOR STRESS PERIOD   44   TIME STEP   24
 
 SOLVING FOR HEAD 
                                                   Max.-Head-Change                         Max.-Flux-Residual
  Residual-Control   Outer-Iter.   Inner-Iter.     Column Row Layer    Maximum-Head-Change  Column Row Layer    Maximum-Flux-Residual          L2-NORM 
          0                 1           2             5    8     1       0.6623193756E-01       5    8    1         0.3609994137E+01      0.8222791488E+01
          0                 2           2             5    7     1      -0.1264693563E+00       5    8    1        -0.6942479415E+01      0.1685986895E+02
          0                 3           2             4    7     1      -0.5468202322E-02       4    7    1        -0.2936961142E+00      0.7044744539E+00
          0                 4           2             4    7     1       0.3703428622E-03       4    7    1         0.2044854992E-01      0.4894939624E-01
          0                 5           1             4    7     1      -0.1473978444E-04       4    7    1        -0.8365979902E-03      0.2001664306E-02

    ------------------------------------------------
       NWT REQUIRED            5 OUTER ITERATIONS 
       AND A TOTAL OF          9 INNER ITERATIONS.
    ------------------------------------------------

 NO OUTPUT CONTROL FOR STRESS PERIOD   44   TIME STEP   25
 
 SOLVING FOR HEAD 
                                                   Max.-Head-Change                         Max.-Flux-Residual
  Residual-Control   Outer-Iter.   Inner-Iter.     Column Row Layer    Maximum-Head-Change  Column Row Layer    Maximum-Flux-Residual          L2-NORM 
          0                 1           2             5    8     1       0.6715425578E-01       5    8    1         0.3659582759E+01      0.8359574167E+01
          0                 2           2             5    7     1      -0.1265739264E+00       5    8    1        -0.6947438156E+01      0.1687311058E+02
          0                 3           2             4    7     1      -0.5460655278E-02       4    7    1        -0.2932883310E+00      0.7035695981E+00
          0                 4           2             4    7     1       0.3698288586E-03       4    7    1         0.2042002674E-01      0.4888538903E-01
          0                 5           1             4    7     1      -0.1471932699E-04       4    7    1        -0.8354321385E-03      0.1999042216E-02

    ------------------------------------------------
       NWT REQUIRED            5 OUTER ITERATIONS 
       AND A TOTAL OF          9 INNER ITERATIONS.
    ------------------------------------------------

 NO OUTPUT CONTROL FOR STRESS PERIOD   44   TIME STEP   26
 
 SOLVING FOR HEAD 
                                                   Max.-Head-Change                         Max.-Flux-Residual
  Residual-Control   Outer-Iter.   Inner-Iter.     Column Row Layer    Maximum-Head-Change  Column Row Layer    Maximum-Flux-Residual          L2-NORM 
          0                 1           2             5    8     1       0.6804620984E-01       5    8    1         0.3707508977E+01      0.8492572622E+01
          0                 2           2             5    7     1      -0.1266761152E+00       5    8    1        -0.6952230659E+01      0.1688603386E+02
          0                 3           2             4    7     1      -0.5453187322E-02       4    7    1        -0.2928846230E+00      0.7026862207E+00
          0                 4           2             4    7     1       0.3693202416E-03       4    7    1         0.2039178811E-01      0.4882286604E-01
          0                 5           1             4    7     1      -0.1469908380E-04       4    7    1        -0.8342778760E-03      0.1996480030E-02

    ------------------------------------------------
       NWT REQUIRED            5 OUTER ITERATIONS 
       AND A TOTAL OF          9 INNER ITERATIONS.
    ------------------------------------------------

 NO OUTPUT CONTROL FOR STRESS PERIOD   44   TIME STEP   27
 
 SOLVING FOR HEAD 
                                                   Max.-Head-Change                         Max.-Flux-Residual
  Residual-Control   Outer-Iter.   Inner-Iter.     Column Row Layer    Maximum-Head-Change  Column Row Layer    Maximum-Flux-Residual          L2-NORM 
          0                 1           2             5    8     1       0.6890938731E-01       5    8    1         0.3753860671E+01      0.8621946905E+01
          0                 2           2             5    7     1      -0.1267760260E+00       5    8    1        -0.6956865712E+01      0.1689864092E+02
          0                 3           2             4    7     1      -0.5456719549E-02       4    7    1        -0.2930711155E+00      0.7032530375E+00
          0                 4           2             4    7     1       0.3716352162E-03       4    7    1         0.2051931014E-01      0.4914222011E-01
          0                 5           1             4    7     1      -0.1479122093E-04       4    7    1        -0.8394959004E-03      0.2009547256E-02

    ------------------------------------------------
       NWT REQUIRED            5 OUTER ITERATIONS 
       AND A TOTAL OF          9 INNER ITERATIONS.
    ------------------------------------------------

 NO OUTPUT CONTROL FOR STRESS PERIOD   44   TIME STEP   28
 
 SOLVING FOR HEAD 
                                                   Max.-Head-Change                         Max.-Flux-Residual
  Residual-Control   Outer-Iter.   Inner-Iter.     Column Row Layer    Maximum-Head-Change  Column Row Layer    Maximum-Flux-Residual          L2-NORM 
          0                 1           2             5    8     1       0.6974154987E-01       5    8    1         0.3798719590E+01      0.8742218869E+01
          0                 2           2             5    7     1      -0.1268982004E+00       5    8    1        -0.6962699447E+01      0.1690490139E+02
          0                 3           2             4    7     1      -0.1727588784E-01       4    7    1        -0.9273714808E+00      0.2255229103E+01
          0                 4           2             4    7     1       0.1176590063E-02       4    7    1         0.6492729617E-01      0.1578972916E+00
          0                 5           1             4    7     1      -0.4682873057E-04       4    7    1        -0.2656244214E-02      0.6460931278E-02

    ------------------------------------------------
       NWT REQUIRED            5 OUTER ITERATIONS 
       AND A TOTAL OF          9 INNER ITERATIONS.
    ------------------------------------------------

 NO OUTPUT CONTROL FOR STRESS PERIOD   44   TIME STEP   29
 
 SOLVING FOR HEAD 
                                                   Max.-Head-Change                         Max.-Flux-Residual
  Residual-Control   Outer-Iter.   Inner-Iter.     Column Row Layer    Maximum-Head-Change  Column Row Layer    Maximum-Flux-Residual          L2-NORM 
          0                 1           2             5    8     1       0.7088967472E-01       5    8    1         0.3860812927E+01      0.8902389682E+01
          0                 2           2             4    7     1      -0.1524419167E+00       5    8    1        -0.8341680844E+01      0.2028067325E+02
          0                 3           2             4    7     1       0.2812934058E-01       5    8    1         0.1563073351E+01      0.3817673814E+01
          0                 4           2             4    7     1      -0.1119297061E-02       5    8    1        -0.6391711219E-01      0.1561236164E+00
          0                 5           1             4    7     1       0.1380141110E-04       5    6    1         0.8091584532E-03      0.1978588018E-02

    ------------------------------------------------
       NWT REQUIRED            5 OUTER ITERATIONS 
       AND A TOTAL OF          9 INNER ITERATIONS.
    ------------------------------------------------

 NO OUTPUT CONTROL FOR STRESS PERIOD   44   TIME STEP   30



 STREAM LISTING     PERIOD     44   STEP       30

 LAYER ROW COL. STREAM  RCH.  FLOW INTO     FLOW TO   FLOW OUT OF   OVRLND.     DIRECT     STREAM       STREAM     STREAM     STREAM   STREAMBED  STREAMBED
                SEG.NO.  NO.  STRM. RCH.    AQUIFER    STRM. RCH.    RUNOFF     PRECIP       ET          HEAD       DEPTH      WIDTH   CONDCTNC.   GRADIENT

   1    1    1     1     1    1.3875E+01  1.7894E-01   1.3696E+01  0.000E+00  0.000E+00  0.000E+00  1.09404E+03  9.876E-01  9.972E+00  4.487E-02  1.329E+00
   1    2    2     1     2    1.3696E+01  2.7573E-01   1.3420E+01  0.000E+00  0.000E+00  0.000E+00  1.08904E+03  9.829E-01  9.890E+00  6.923E-02  1.328E+00
   1    3    3     1     3    1.3420E+01  2.3380E-01   1.3186E+01  0.000E+00  0.000E+00  0.000E+00  1.08340E+03  9.775E-01  9.797E+00  5.878E-02  1.326E+00
   1    3    4     1     4    1.3186E+01  2.1419E-01   1.2972E+01  0.000E+00  0.000E+00  0.000E+00  1.07838E+03  9.727E-01  9.714E+00  5.391E-02  1.324E+00
   1    4    5     2     1    1.0972E+01  2.9101E-01   1.0681E+01  0.000E+00  0.000E+00  0.000E+00  1.07266E+03  7.309E-01  1.200E+01  7.800E-02  1.244E+00
   1    5    6     2     2    1.0681E+01  2.2322E-01   1.0458E+01  0.000E+00  0.000E+00  0.000E+00  1.06723E+03  7.204E-01  1.200E+01  6.000E-02  1.240E+00
   1    6    6     2     3    1.0458E+01  2.2267E-01   1.0235E+01  0.000E+00  0.000E+00  0.000E+00  1.06250E+03  7.112E-01  1.200E+01  6.000E-02  1.237E+00
   1    7    6     2     4    1.0235E+01  2.2212E-01   1.0013E+01  0.000E+00  0.000E+00  0.000E+00  1.05778E+03  7.020E-01  1.200E+01  6.000E-02  1.234E+00
   1    8    6     2     5    1.0013E+01  2.2157E-01   9.7913E+00  0.000E+00  0.000E+00  0.000E+00  1.05305E+03  6.928E-01  1.200E+01  6.000E-02  1.231E+00
   1    3    5     3     1    2.0000E+00  2.8252E-01   1.7175E+00  0.000E+00  0.000E+00  0.000E+00  1.07555E+03  1.909E+00  9.636E+00  7.227E-02  1.955E+00
   1    3    6     3     2    1.7175E+00  2.4905E-01   1.4684E+00  0.000E+00  0.000E+00  0.000E+00  1.07264E+03  1.727E+00  8.909E+00  6.682E-02  1.864E+00
   1    3    7     3     3    1.4684E+00  1.9718E-01   1.2712E+00  0.000E+00  0.000E+00  0.000E+00  1.06987E+03  1.555E+00  8.218E+00  5.547E-02  1.777E+00
   1    4    8     3     4    1.2712E+00  2.2567E-01   1.0456E+00  0.000E+00  0.000E+00  0.000E+00  1.06682E+03  1.364E+00  7.455E+00  6.709E-02  1.682E+00
   1    5    8     3     5    1.0456E+00  1.5790E-01   8.8768E-01  0.000E+00  0.000E+00  0.000E+00  1.06362E+03  1.164E+00  6.655E+00  4.991E-02  1.582E+00
   1    6    8     3     6    8.8768E-01  5.5980E-02   8.3170E-01  0.000E+00  0.000E+00  0.000E+00  1.06158E+03  1.036E+00  6.145E+00  1.844E-02  1.518E+00
   1    5   10     4     1    1.0000E+01  9.0919E-02   9.9091E+00  0.000E+00  0.000E+00  0.000E+00  1.07836E+03  6.368E-01  1.000E+01  2.500E-02  1.212E+00
   1    5    9     4     2    9.9091E+00  1.8158E-01   9.7275E+00  0.000E+00  0.000E+00  0.000E+00  1.07154E+03  6.315E-01  1.000E+01  5.000E-02  1.211E+00
   1    6    8     4     3    9.7275E+00  1.2689E-01   9.6006E+00  0.000E+00  0.000E+00  0.000E+00  1.06381E+03  6.256E-01  1.000E+01  3.500E-02  1.209E+00
   1    6    8     5     1    1.0432E+01  2.2686E-01   1.0205E+01  0.000E+00  0.000E+00  0.000E+00  1.05868E+03  6.790E-01  1.542E+01  6.166E-02  1.226E+00
   1    7    7     5     2    1.0205E+01  2.7894E-01   9.9265E+00  0.000E+00  0.000E+00  0.000E+00  1.05417E+03  6.732E-01  1.519E+01  7.594E-02  1.224E+00
   1    8    7     5     3    9.9265E+00  1.9221E-01   9.7343E+00  0.000E+00  0.000E+00  0.000E+00  1.04992E+03  6.676E-01  1.497E+01  5.241E-02  1.223E+00
   1    8    6     5     4    9.7343E+00  1.3577E-01   9.5985E+00  0.000E+00  0.000E+00  0.000E+00  1.04691E+03  6.637E-01  1.482E+01  3.706E-02  1.221E+00
   1    9    6     6     1    9.5985E+00  2.2097E-01   9.3776E+00  0.000E+00  0.000E+00  0.000E+00  1.04341E+03  6.828E-01  1.200E+01  6.000E-02  1.228E+00
   1   10    7     6     2    9.3776E+00  2.2039E-01   9.1572E+00  0.000E+00  0.000E+00  0.000E+00  1.03885E+03  6.732E-01  1.200E+01  6.000E-02  1.224E+00
   1   11    7     6     3    9.1572E+00  2.1981E-01   8.9374E+00  0.000E+00  0.000E+00  0.000E+00  1.03430E+03  6.636E-01  1.200E+01  6.000E-02  1.221E+00
   1   12    7     6     4    8.9374E+00  2.1923E-01   8.7181E+00  0.000E+00  0.000E+00  0.000E+00  1.02974E+03  6.539E-01  1.200E+01  6.000E-02  1.218E+00
   1   13    7     6     5    8.7181E+00  3.6441E-03   8.7145E+00  0.000E+00  0.000E+00  0.000E+00  1.02656E+03  6.489E-01  1.200E+01  2.400E-02  5.061E-02
   1   14    9     7     1    1.5000E+02  1.4072E+00   1.4859E+02  0.000E+00  0.000E+00  0.000E+00  1.03987E+03  2.288E+00  5.529E+01  5.593E-01  8.387E-01
   1   13    8     7     2    1.4859E+02  2.0538E+00   1.4654E+02  0.000E+00  0.000E+00  0.000E+00  1.03478E+03  2.278E+00  5.525E+01  6.147E-01  1.114E+00
   1   13    7     7     3    1.4654E+02  1.8320E+00   1.4471E+02  0.000E+00  0.000E+00  0.000E+00  1.02969E+03  2.268E+00  5.521E+01  5.583E-01  1.094E+00
   1   13    6     8     1    1.5342E+02  1.1754E+00   1.5225E+02  0.000E+00  0.000E+00  0.000E+00  1.02471E+03  2.837E+00  4.113E+01  4.191E-01  9.348E-01
   1   13    5     8     2    1.5225E+02  4.2119E-01   1.5182E+02  0.000E+00  0.000E+00  0.000E+00  1.01846E+03  2.831E+00  4.105E+01  4.183E-01  3.356E-01
   1   13    4     8     3    1.5182E+02 -1.5783E+00   1.5340E+02  0.000E+00  0.000E+00  0.000E+00  1.01221E+03  2.835E+00  4.111E+01  4.189E+00 -1.256E-01
   1   13    3     8     4    1.5340E+02 -3.2143E+00   1.5662E+02  0.000E+00  0.000E+00  0.000E+00  1.00598E+03  2.852E+00  4.135E+01  4.214E+00 -2.543E-01
   1   13    2     8     5    1.5662E+02 -2.4748E+00   1.5909E+02  0.000E+00  0.000E+00  0.000E+00  9.99746E+02  2.871E+00  4.163E+01  4.243E+00 -1.944E-01
   1   13    1     8     6    1.5909E+02 -1.9631E+00   1.6106E+02  0.000E+00  0.000E+00  0.000E+00  9.94761E+02  2.886E+00  4.185E+01  2.559E+00 -2.557E-01
   1    8    6     9     1    9.7913E+00  0.0000E+00   9.7913E+00  0.000E+00  0.000E+00  0.000E+00  1.08099E+03  2.238E+00  4.000E+00  0.000E+00  1.746E+00
   1    8    5     9     2    9.7913E+00  0.0000E+00   9.7913E+00  0.000E+00  0.000E+00  0.000E+00  1.08049E+03  2.238E+00  4.000E+00  0.000E+00  1.746E+00





UNSATURATED ZONE PACKAGE VOLUMETRIC BUDGET FOR  TIME STEP    30 STRESS PERIOD   44
  ------------------------------------------------------------------------------



     CUMULATIVE VOLUMES      L**3       RATES FOR THIS TIME STEP      L**3/T
     ------------------                 ------------------------

           IN:                                      IN:
           ---                                      ---
        INFILTRATION =  2017865484.7163          INFILTRATION =          52.4977

          OUT:                                     OUT:
          ----                                     ----
              UZF ET =  1537481506.4822                UZF ET =          60.8175
        UZF RECHARGE =    89935077.6917          UZF RECHARGE =       0.0000E+00

            IN - OUT =   390448900.5425              IN - OUT =          -8.3198

          STORAGE:                                 STORAGE:
          --------                                 --------
      STORAGE CHANGE =   390453464.1374        STORAGE CHANGE =          -8.3198

 PERCENT DISCREPANCY IS DIFFERENCE BETWEEN IN-OUT MINUS CHANGE IN STORAGE
 DIVIDED BY THE AVERAGE OF IN AND OUT TIMES 100

 PERCENT DISCREPANCY =          -0.00     PERCENT DISCREPANCY =          -0.00






1
  VOLUMETRIC BUDGET FOR AGRICULTURAL FIELDS AT  END OF TIME STEP   30, STRESS PERIOD  44
  ------------------------------------------------------------------------------

     CUMULATIVE VOLUMES      L**3       RATES FOR THIS TIME STEP      L**3/T
     ------------------                 ------------------------

           IN:                                      IN:
           ---                                      ---
               AG WELLS  =  1246123520.0000                 AG WELLS  =          41.8586
      DIVERSION SEGMENTS =   676039616.0000        DIVERSION SEGMENTS =           9.7913
       IRRIGATION PONDS  =           0.0000         IRRIGATION PONDS  =           0.0000
           GW IRRIGATION =           0.0000             GW IRRIGATION =           0.0000
           SW IRRIGATION =           0.0000             SW IRRIGATION =           0.0000
        SYSTEM LOSSES GW =           0.0000          SYSTEM LOSSES GW =           0.0000
        SYSTEM LOSSES SW =           0.0000          SYSTEM LOSSES SW =           0.0000

                TOTAL IN =  1922163200.0000                  TOTAL IN =          51.6500

          OUT:                                     OUT:
          ----                                     ----
               AG WELLS  =           0.0000                 AG WELLS  =           0.0000
      DIVERSION SEGMENTS =           0.0000        DIVERSION SEGMENTS =           0.0000
       IRRIGATION PONDS  =           0.0000         IRRIGATION PONDS  =           0.0000
           GW IRRIGATION =  1246123520.0000             GW IRRIGATION =          41.8586
           SW IRRIGATION =   676053440.0000             SW IRRIGATION =           9.7915
        SYSTEM LOSSES GW =           0.0000          SYSTEM LOSSES GW =           0.0000
        SYSTEM LOSSES SW =           0.0000          SYSTEM LOSSES SW =           0.0000

               TOTAL OUT =  1922177024.0000                 TOTAL OUT =          51.6502

                IN - OUT =      -13824.0000                  IN - OUT =      -1.9455E-04

     PERCENT DISCREPANCY =          -0.00         PERCENT DISCREPANCY =          -0.00



1
  VOLUMETRIC BUDGET FOR ENTIRE MODEL AT END OF TIME STEP   30, STRESS PERIOD  44
  ------------------------------------------------------------------------------

     CUMULATIVE VOLUMES      L**3       RATES FOR THIS TIME STEP      L**3/T
     ------------------                 ------------------------

           IN:                                      IN:
           ---                                      ---
             STORAGE     =  1859283968.0000               STORAGE     =          38.9284
       CONSTANT HEAD     =           0.0000         CONSTANT HEAD     =           0.0000
     HEAD DEP BOUNDS     =    32692090.0000       HEAD DEP BOUNDS     =           0.2906
      STREAM LEAKAGE     =  1366096896.0000        STREAM LEAKAGE     =          12.2584
        UZF RECHARGE     =    89935088.0000          UZF RECHARGE     =           0.0000
               GW ET     =           0.0000                 GW ET     =           0.0000
     SURFACE LEAKAGE     =           0.0000       SURFACE LEAKAGE     =           0.0000
           AG WELLS      =           0.0000             AG WELLS      =           0.0000

                TOTAL IN =  3348008192.0000                  TOTAL IN =          51.4774

          OUT:                                     OUT:
          ----                                     ----
             STORAGE     =   966047744.0000               STORAGE     =           0.1021
       CONSTANT HEAD     =           0.0000         CONSTANT HEAD     =           0.0000
     HEAD DEP BOUNDS     =    32571556.0000       HEAD DEP BOUNDS     =           0.2861
      STREAM LEAKAGE     =  1103230464.0000        STREAM LEAKAGE     =           9.2305
        UZF RECHARGE     =           0.0000          UZF RECHARGE     =           0.0000
               GW ET     =           0.0000                 GW ET     =           0.0000
     SURFACE LEAKAGE     =           0.0000       SURFACE LEAKAGE     =           0.0000
           AG WELLS      =  1246123520.0000             AG WELLS      =          41.8586

               TOTAL OUT =  3347973376.0000                 TOTAL OUT =          51.4773

                IN - OUT =       34816.0000                  IN - OUT =       6.4850E-05

     PERCENT DISCREPANCY =           0.00         PERCENT DISCREPANCY =           0.00






         TIME SUMMARY AT END OF TIME STEP   30 IN STRESS PERIOD   44
                    SECONDS     MINUTES      HOURS       DAYS        YEARS
                    -----------------------------------------------------------
   TIME STEP LENGTH  87667.      1461.1      24.352      1.0147     2.77799E-03
 STRESS PERIOD TIME 2.63000E+06  43833.      730.56      30.440     8.33397E-02
         TOTAL TIME 1.13175E+08 1.88626E+06  31438.      1309.9      3.5863    
1
1
                            STRESS PERIOD NO.   45, LENGTH =   2630000.    
                            -----------------------------------------------

                              NUMBER OF TIME STEPS =    30

                               MULTIPLIER FOR DELT =     1.000

                            INITIAL TIME STEP SIZE =   87666.66    

 REUSING NON-PARAMETER GHB CELLS FROM LAST STRESS PERIOD

      2 GHB CELLS

 REUSING STREAM SEGMENT DATA FROM LAST STRESS PERIOD



            AREAL INFILTRATION RATE
 READING ON UNIT   19 WITH FORMAT: (FREE)              

            1           2           3           4           5           6           7           8           9          10
 ........................................................................................................................
   1   1.0000E-10  2.0000E-10   0.000       0.000       0.000       0.000       0.000       0.000       0.000       0.000    
   2   2.0000E-10  1.0000E-10  2.0000E-10   0.000       0.000      8.0000E-10  8.0000E-10  5.0000E-10   0.000       0.000    
   3    0.000      5.0000E-10  1.0000E-10  1.0000E-10  8.0000E-10  8.0000E-10  5.0000E-10  5.0000E-10   0.000       0.000    
   4   8.0000E-10  5.0000E-10  1.0000E-10  1.0000E-10  1.0000E-10  1.0000E-10  1.0000E-10  1.0000E-10  2.0000E-10   0.000    
   5   8.0000E-10  5.0000E-10  1.0000E-10  1.0000E-10  1.0000E-10  1.0000E-10  1.0000E-10  1.0000E-10  1.0000E-10  1.0000E-10
   6   8.0000E-10  5.0000E-10  5.0000E-10  2.0000E-10  2.0000E-10  1.0000E-10  1.0000E-10  1.0000E-10  1.0000E-10  5.0000E-10
   7   8.0000E-10  5.0000E-10  5.0000E-10  2.0000E-10  2.0000E-10  1.0000E-10  1.0000E-10  2.0000E-10  2.0000E-10   0.000    
   8    0.000      5.0000E-10  5.0000E-10  2.0000E-10  2.0000E-10  1.0000E-10  1.0000E-10  2.0000E-10  5.0000E-10   0.000    
   9    0.000      5.0000E-10  5.0000E-10  2.0000E-10  2.0000E-10  1.0000E-10  1.0000E-10  2.0000E-10  5.0000E-10   0.000    
  10    0.000      5.0000E-10  5.0000E-10  2.0000E-10  2.0000E-10  1.0000E-10  1.0000E-10  2.0000E-10  5.0000E-10  8.0000E-10
  11    0.000      1.0000E-10  1.0000E-10  1.0000E-10  1.0000E-10  1.0000E-10  1.0000E-10  2.0000E-10  5.0000E-10   0.000    
  12   1.0000E-10  1.0000E-10  1.0000E-10  1.0000E-10  1.0000E-10  1.0000E-10  1.0000E-10  1.0000E-10  2.0000E-10   0.000    
  13   1.0000E-10  1.0000E-10  2.0000E-10  2.0000E-10  2.0000E-10  2.0000E-10  2.0000E-10  1.0000E-10  1.0000E-10   0.000    
  14    0.000      2.0000E-10  5.0000E-10  5.0000E-10  5.0000E-10  5.0000E-10  5.0000E-10  2.0000E-10  1.0000E-10   0.000    
  15    0.000       0.000      8.0000E-10  8.0000E-10  8.0000E-10  8.0000E-10   0.000       0.000       0.000       0.000    

                  ET RATE =  3.250000E-07

 USING ET EXTINCTION DEPTH FROM PREVIOUS STRESS PERIOD. CURRENT PERIOD IS:      45

 USING EXTINCTION WATER CONTENT FROM PREVIOUS STRESS PERIOD. CURRENT PERIOD IS:      45

 USING AIR ENTRY PRESSURE FROM PREVIOUS STRESS PERIOD. CURRENT PERIOD IS:      45

 USING ROOT PRESSURE HEAD FROM PREVIOUS STRESS PERIOD. CURRENT PERIOD IS:      45

 USING ROOT ACTIVITY FROM PREVIOUS STRESS PERIOD. CURRENT PERIOD IS:      45

 PROCESSING AG STRESS PERIOD DATA

 READING AG STRESS PERIOD DATA

 READING IRRIGATION SEGMENT

 READING IRRIGATION WELL

 READING SUPPLEMENTAL WELL

 NO IRRPOND OR REUSING IRRPOND DATA FROM LAST STRESS PERIOD

 END PROCESSING AG STRESS PERIOD DATA OPTIONS
 
 SOLVING FOR HEAD 
                                                   Max.-Head-Change                         Max.-Flux-Residual
  Residual-Control   Outer-Iter.   Inner-Iter.     Column Row Layer    Maximum-Head-Change  Column Row Layer    Maximum-Flux-Residual          L2-NORM 
          0                 1           2             5    8     1       0.7145121100E-01       5    8    1         0.3890553542E+01      0.8990764876E+01
          0                 2           2             4    7     1      -0.2452238340E+00       5    8    1        -0.1331871774E+02      0.3246814049E+02
          0                 3           2             4    7     1       0.1669853381E-01       5    8    1         0.9322316230E+00      0.2272625516E+01
          0                 4           2             4    7     1      -0.6644517138E-03       5    8    1        -0.3812226063E-01      0.9294204517E-01
          0                 5           1             4    7     1       0.8192975457E-05       5    8    1         0.4827094276E-03      0.1177666854E-02

    ------------------------------------------------
       NWT REQUIRED            5 OUTER ITERATIONS 
       AND A TOTAL OF          9 INNER ITERATIONS.
    ------------------------------------------------

 NO OUTPUT CONTROL FOR STRESS PERIOD   45   TIME STEP    1
 
 SOLVING FOR HEAD 
                                                   Max.-Head-Change                         Max.-Flux-Residual
  Residual-Control   Outer-Iter.   Inner-Iter.     Column Row Layer    Maximum-Head-Change  Column Row Layer    Maximum-Flux-Residual          L2-NORM 
          0                 1           2             5    8     1       0.7520053378E-01       5    8    1         0.4096160144E+01      0.9444207744E+01
          0                 2           2             5    8     1      -0.1290718070E-01       5    8    1        -0.7174859485E+00      0.1650819602E+01
          0                 3           2             4    7     1      -0.2395787836E-01       4    7    1        -0.1285978318E+01      0.3148569955E+01
          0                 4           2             4    7     1       0.2338858001E-01       4    7    1         0.1290304682E+01      0.3159451523E+01
          0                 5           2             4    7     1      -0.1474565042E-01       4    7    1        -0.8361555031E+00      0.2048125074E+01
          0                 6           2             4    7     1      -0.1123720350E-01       4    7    1        -0.6371993545E+00      0.1560801984E+01
          0                 7           2             4    7     1      -0.1242070498E-02       4    7    1        -0.7042964672E-01      0.1725084015E+00
          0                 8           2             4    7     1      -0.1324192542E-01       4    7    1        -0.7508619477E+00      0.1839227452E+01
          0                 9           2             4    7     1       0.1637853510E-03       5    8    1         0.9554830186E-02      0.2340777888E-01
          0                10           1             4    7     1       0.2402568217E-05       5    8    1         0.1401584354E-03      0.3433654721E-03

    ------------------------------------------------
       NWT REQUIRED           10 OUTER ITERATIONS 
       AND A TOTAL OF         19 INNER ITERATIONS.
    ------------------------------------------------

 NO OUTPUT CONTROL FOR STRESS PERIOD   45   TIME STEP    2
 
 SOLVING FOR HEAD 
                                                   Max.-Head-Change                         Max.-Flux-Residual
  Residual-Control   Outer-Iter.   Inner-Iter.     Column Row Layer    Maximum-Head-Change  Column Row Layer    Maximum-Flux-Residual          L2-NORM 
          0                 1           2             5    8     1       0.7325735638E-01       5    8    1         0.3987615763E+01      0.9266510980E+01
          0                 2           2             5    6     1      -0.9148386383E-01       5    8    1        -0.5038038942E+01      0.1219936808E+02
          0                 3           2             4    7     1      -0.1465890590E-01       4    7    1        -0.7869087334E+00      0.1911626696E+01
          0                 4           2             5    7     1      -0.4764994257E-03       5    8    1        -0.2620662706E-01      0.6345832746E-01
          0                 5           2             4    7     1      -0.1479841894E-02       4    7    1        -0.7941816506E-01      0.1944550174E+00
          0                 6           1             4    7     1       0.1008149151E-03       4    7    1         0.5561742662E-02      0.1361945640E-01
          0                 7           1             4    7     1      -0.4014374615E-05       4    7    1        -0.2276408968E-03      0.5575268736E-03

    ------------------------------------------------
       NWT REQUIRED            7 OUTER ITERATIONS 
       AND A TOTAL OF         12 INNER ITERATIONS.
    ------------------------------------------------

 NO OUTPUT CONTROL FOR STRESS PERIOD   45   TIME STEP    3
 
 SOLVING FOR HEAD 
                                                   Max.-Head-Change                         Max.-Flux-Residual
  Residual-Control   Outer-Iter.   Inner-Iter.     Column Row Layer    Maximum-Head-Change  Column Row Layer    Maximum-Flux-Residual          L2-NORM 
          0                 1           2             5    8     1       0.7318715185E-01       5    8    1         0.3982543757E+01      0.9290999960E+01
          0                 2           2             5    7     1      -0.9493128969E-01       5    8    1        -0.5223688966E+01      0.1265899696E+02
          0                 3           2             4    7     1      -0.2446218990E-01       4    7    1        -0.1313009779E+01      0.3200617530E+01
          0                 4           2             4    7     1       0.1666018718E-02       4    7    1         0.9192625112E-01      0.2240970652E+00
          0                 5           1             4    7     1      -0.6630818137E-04       4    7    1        -0.3760786021E-02      0.9169701464E-02

    ------------------------------------------------
       NWT REQUIRED            5 OUTER ITERATIONS 
       AND A TOTAL OF          9 INNER ITERATIONS.
    ------------------------------------------------

 NO OUTPUT CONTROL FOR STRESS PERIOD   45   TIME STEP    4
 
 SOLVING FOR HEAD 
                                                   Max.-Head-Change                         Max.-Flux-Residual
  Residual-Control   Outer-Iter.   Inner-Iter.     Column Row Layer    Maximum-Head-Change  Column Row Layer    Maximum-Flux-Residual          L2-NORM 
          0                 1           2             5    8     1       0.7344488579E-01       5    8    1         0.3995604321E+01      0.9349959254E+01
          0                 2           2             5    7     1      -0.9562588596E-01       5    8    1        -0.5259295788E+01      0.1274975591E+02
          0                 3           2             4    7     1      -0.2396554729E-01       4    7    1        -0.1286348165E+01      0.3135659136E+01
          0                 4           2             4    7     1       0.1632194513E-02       4    7    1         0.9005966466E-01      0.2195484770E+00
          0                 5           1             4    7     1      -0.6496196467E-04       4    7    1        -0.3684423770E-02      0.8983583497E-02

    ------------------------------------------------
       NWT REQUIRED            5 OUTER ITERATIONS 
       AND A TOTAL OF          9 INNER ITERATIONS.
    ------------------------------------------------

 NO OUTPUT CONTROL FOR STRESS PERIOD   45   TIME STEP    5
 
 SOLVING FOR HEAD 
                                                   Max.-Head-Change                         Max.-Flux-Residual
  Residual-Control   Outer-Iter.   Inner-Iter.     Column Row Layer    Maximum-Head-Change  Column Row Layer    Maximum-Flux-Residual          L2-NORM 
          0                 1           2             5    8     1       0.7371370289E-01       5    8    1         0.4009302697E+01      0.9409018599E+01
          0                 2           2             5    7     1      -0.9624736443E-01       5    8    1        -0.5291066340E+01      0.1283092384E+02
          0                 3           2             4    7     1      -0.2328868051E-01       4    7    1        -0.1250014880E+01      0.3046999130E+01
          0                 4           2             4    7     1       0.1586096003E-02       4    7    1         0.8751595628E-01      0.2133402275E+00
          0                 5           1             4    7     1      -0.6312722606E-04       4    7    1        -0.3580360185E-02      0.8729554827E-02

    ------------------------------------------------
       NWT REQUIRED            5 OUTER ITERATIONS 
       AND A TOTAL OF          9 INNER ITERATIONS.
    ------------------------------------------------

 NO OUTPUT CONTROL FOR STRESS PERIOD   45   TIME STEP    6
 
 SOLVING FOR HEAD 
                                                   Max.-Head-Change                         Max.-Flux-Residual
  Residual-Control   Outer-Iter.   Inner-Iter.     Column Row Layer    Maximum-Head-Change  Column Row Layer    Maximum-Flux-Residual          L2-NORM 
          0                 1           2             5    8     1       0.7398476158E-01       5    8    1         0.4023160266E+01      0.9467366463E+01
          0                 2           2             5    7     1      -0.9686111546E-01       5    8    1        -0.5322515211E+01      0.1291115657E+02
          0                 3           2             4    7     1      -0.2269781332E-01       4    7    1        -0.1218297210E+01      0.2969634772E+01
          0                 4           2             4    7     1       0.1545854554E-02       4    7    1         0.8529538990E-01      0.2079229184E+00
          0                 5           1             4    7     1      -0.6152560079E-04       4    7    1        -0.3489516439E-02      0.8507889970E-02

    ------------------------------------------------
       NWT REQUIRED            5 OUTER ITERATIONS 
       AND A TOTAL OF          9 INNER ITERATIONS.
    ------------------------------------------------

 NO OUTPUT CONTROL FOR STRESS PERIOD   45   TIME STEP    7
 
 SOLVING FOR HEAD 
                                                   Max.-Head-Change                         Max.-Flux-Residual
  Residual-Control   Outer-Iter.   Inner-Iter.     Column Row Layer    Maximum-Head-Change  Column Row Layer    Maximum-Flux-Residual          L2-NORM 
          0                 1           2             5    8     1       0.7425977060E-01       5    8    1         0.4037265004E+01      0.9525230243E+01
          0                 2           2             5    7     1      -0.9744917788E-01       5    8    1        -0.5352667006E+01      0.1298806454E+02
          0                 3           2             4    7     1      -0.2210903292E-01       4    7    1        -0.1186691847E+01      0.2892535583E+01
          0                 4           2             4    7     1       0.1505755224E-02       4    7    1         0.8308268550E-01      0.2025241533E+00
          0                 5           1             4    7     1      -0.5992963110E-04       4    7    1        -0.3398994290E-02      0.8286983196E-02

    ------------------------------------------------
       NWT REQUIRED            5 OUTER ITERATIONS 
       AND A TOTAL OF          9 INNER ITERATIONS.
    ------------------------------------------------

 NO OUTPUT CONTROL FOR STRESS PERIOD   45   TIME STEP    8
 
 SOLVING FOR HEAD 
                                                   Max.-Head-Change                         Max.-Flux-Residual
  Residual-Control   Outer-Iter.   Inner-Iter.     Column Row Layer    Maximum-Head-Change  Column Row Layer    Maximum-Flux-Residual          L2-NORM 
          0                 1           2             5    8     1       0.7453724077E-01       5    8    1         0.4051532860E+01      0.9582509533E+01
          0                 2           2             5    7     1      -0.9801900781E-01       5    8    1        -0.5381916247E+01      0.1306262863E+02
          0                 3           2             4    7     1      -0.2154642264E-01       4    7    1        -0.1156491240E+01      0.2818867810E+01
          0                 4           2             4    7     1       0.1467438226E-02       4    7    1         0.8096832837E-01      0.1973656392E+00
          0                 5           1             4    7     1      -0.5840459989E-04       4    7    1        -0.3312495591E-02      0.8075907237E-02

    ------------------------------------------------
       NWT REQUIRED            5 OUTER ITERATIONS 
       AND A TOTAL OF          9 INNER ITERATIONS.
    ------------------------------------------------

 NO OUTPUT CONTROL FOR STRESS PERIOD   45   TIME STEP    9
 
 SOLVING FOR HEAD 
                                                   Max.-Head-Change                         Max.-Flux-Residual
  Residual-Control   Outer-Iter.   Inner-Iter.     Column Row Layer    Maximum-Head-Change  Column Row Layer    Maximum-Flux-Residual          L2-NORM 
          0                 1           2             5    8     1       0.7481679629E-01       5    8    1         0.4065941434E+01      0.9639195611E+01
          0                 2           2             5    7     1      -0.9857227352E-01       5    8    1        -0.5410106312E+01      0.1313475771E+02
          0                 3           2             4    7     1      -0.2100058468E-01       4    7    1        -0.1127190938E+01      0.2747396272E+01
          0                 4           2             4    7     1       0.1430263515E-02       4    7    1         0.7891700160E-01      0.1923609038E+00
          0                 5           1             4    7     1      -0.5692503185E-04       4    7    1        -0.3228575430E-02      0.7871123080E-02

    ------------------------------------------------
       NWT REQUIRED            5 OUTER ITERATIONS 
       AND A TOTAL OF          9 INNER ITERATIONS.
    ------------------------------------------------

 NO OUTPUT CONTROL FOR STRESS PERIOD   45   TIME STEP   10
 
 SOLVING FOR HEAD 
                                                   Max.-Head-Change                         Max.-Flux-Residual
  Residual-Control   Outer-Iter.   Inner-Iter.     Column Row Layer    Maximum-Head-Change  Column Row Layer    Maximum-Flux-Residual          L2-NORM 
          0                 1           2             5    8     1       0.7510684771E-01       5    8    1         0.4080598286E+01      0.9695279348E+01
          0                 2           2             5    7     1      -0.9910015653E-01       5    8    1        -0.5437488151E+01      0.1320418522E+02
          0                 3           2             4    7     1      -0.2045739082E-01       4    7    1        -0.1098032789E+01      0.2676264209E+01
          0                 4           2             4    7     1       0.1393268880E-02       4    7    1         0.7687562645E-01      0.1873798992E+00
          0                 5           1             4    7     1      -0.5545263091E-04       4    7    1        -0.3145062403E-02      0.7667309336E-02

    ------------------------------------------------
       NWT REQUIRED            5 OUTER ITERATIONS 
       AND A TOTAL OF          9 INNER ITERATIONS.
    ------------------------------------------------

 NO OUTPUT CONTROL FOR STRESS PERIOD   45   TIME STEP   11
 
 SOLVING FOR HEAD 
                                                   Max.-Head-Change                         Max.-Flux-Residual
  Residual-Control   Outer-Iter.   Inner-Iter.     Column Row Layer    Maximum-Head-Change  Column Row Layer    Maximum-Flux-Residual          L2-NORM 
          0                 1           2             5    8     1       0.7539511238E-01       5    8    1         0.4095549101E+01      0.9750690880E+01
          0                 2           2             5    7     1      -0.9961838832E-01       5    8    1        -0.5464234576E+01      0.1327217492E+02
          0                 3           2             4    7     1      -0.1995121967E-01       4    7    1        -0.1070861865E+01      0.2609991321E+01
          0                 4           2             4    7     1       0.1358795702E-02       4    7    1         0.7497337781E-01      0.1827391568E+00
          0                 5           1             4    7     1      -0.5408058545E-04       4    7    1        -0.3067241096E-02      0.7477417575E-02

    ------------------------------------------------
       NWT REQUIRED            5 OUTER ITERATIONS 
       AND A TOTAL OF          9 INNER ITERATIONS.
    ------------------------------------------------

 NO OUTPUT CONTROL FOR STRESS PERIOD   45   TIME STEP   12
 
 SOLVING FOR HEAD 
                                                   Max.-Head-Change                         Max.-Flux-Residual
  Residual-Control   Outer-Iter.   Inner-Iter.     Column Row Layer    Maximum-Head-Change  Column Row Layer    Maximum-Flux-Residual          L2-NORM 
          0                 1           2             5    8     1       0.7568347300E-01       5    8    1         0.4110525338E+01      0.9805472358E+01
          0                 2           2             5    7     1      -0.1001198302E+00       5    8    1        -0.5490128100E+01      0.1333798136E+02
          0                 3           2             4    7     1      -0.1945392216E-01       4    7    1        -0.1044167420E+01      0.2544877434E+01
          0                 4           2             4    7     1       0.1324926866E-02       4    7    1         0.7310448728E-01      0.1781795435E+00
          0                 5           1             4    7     1      -0.5273259209E-04       4    7    1        -0.2990784407E-02      0.7290845465E-02

    ------------------------------------------------
       NWT REQUIRED            5 OUTER ITERATIONS 
       AND A TOTAL OF          9 INNER ITERATIONS.
    ------------------------------------------------

 NO OUTPUT CONTROL FOR STRESS PERIOD   45   TIME STEP   13
 
 SOLVING FOR HEAD 
                                                   Max.-Head-Change                         Max.-Flux-Residual
  Residual-Control   Outer-Iter.   Inner-Iter.     Column Row Layer    Maximum-Head-Change  Column Row Layer    Maximum-Flux-Residual          L2-NORM 
          0                 1           2             5    8     1       0.7597146740E-01       5    8    1         0.4125500112E+01      0.9859598271E+01
          0                 2           2             5    7     1      -0.1006075621E+00       5    8    1        -0.5515330064E+01      0.1340200591E+02
          0                 3           2             4    7     1      -0.1897352803E-01       4    7    1        -0.1018380371E+01      0.2481978248E+01
          0                 4           2             4    7     1       0.1292209245E-02       4    7    1         0.7129912362E-01      0.1737749984E+00
          0                 5           1             4    7     1      -0.5143041856E-04       4    7    1        -0.2916926656E-02      0.7110619118E-02

    ------------------------------------------------
       NWT REQUIRED            5 OUTER ITERATIONS 
       AND A TOTAL OF          9 INNER ITERATIONS.
    ------------------------------------------------

 NO OUTPUT CONTROL FOR STRESS PERIOD   45   TIME STEP   14
 
 SOLVING FOR HEAD 
                                                   Max.-Head-Change                         Max.-Flux-Residual
  Residual-Control   Outer-Iter.   Inner-Iter.     Column Row Layer    Maximum-Head-Change  Column Row Layer    Maximum-Flux-Residual          L2-NORM 
          0                 1           2             5    8     1       0.7625873845E-01       5    8    1         0.4140453201E+01      0.9913061702E+01
          0                 2           2             5    7     1      -0.1010815772E+00       5    8    1        -0.5539837493E+01      0.1346424691E+02
          0                 3           2             4    7     1      -0.1850619687E-01       4    7    1        -0.9932946055E+00      0.2420789781E+01
          0                 4           2             4    7     1       0.1260381287E-02       4    7    1         0.6954285690E-01      0.1694902472E+00
          0                 5           1             4    7     1      -0.5016365343E-04       4    7    1        -0.2845077447E-02      0.6935293621E-02

    ------------------------------------------------
       NWT REQUIRED            5 OUTER ITERATIONS 
       AND A TOTAL OF          9 INNER ITERATIONS.
    ------------------------------------------------

 NO OUTPUT CONTROL FOR STRESS PERIOD   45   TIME STEP   15
 
 SOLVING FOR HEAD 
                                                   Max.-Head-Change                         Max.-Flux-Residual
  Residual-Control   Outer-Iter.   Inner-Iter.     Column Row Layer    Maximum-Head-Change  Column Row Layer    Maximum-Flux-Residual          L2-NORM 
          0                 1           2             5    8     1       0.7654499844E-01       5    8    1         0.4155367284E+01      0.9965868309E+01
          0                 2           2             5    7     1      -0.1015428904E+00       5    8    1        -0.5563701108E+01      0.1352483521E+02
          0                 3           2             4    7     1      -0.1805204390E-01       4    7    1        -0.9689162981E+00      0.2361326452E+01
          0                 4           2             4    7     1       0.1229450836E-02       4    7    1         0.6783611930E-01      0.1653262510E+00
          0                 5           1             4    7     1      -0.4893260961E-04       4    7    1        -0.2775254501E-02      0.6764908067E-02

    ------------------------------------------------
       NWT REQUIRED            5 OUTER ITERATIONS 
       AND A TOTAL OF          9 INNER ITERATIONS.
    ------------------------------------------------

 NO OUTPUT CONTROL FOR STRESS PERIOD   45   TIME STEP   16
 
 SOLVING FOR HEAD 
                                                   Max.-Head-Change                         Max.-Flux-Residual
  Residual-Control   Outer-Iter.   Inner-Iter.     Column Row Layer    Maximum-Head-Change  Column Row Layer    Maximum-Flux-Residual          L2-NORM 
          0                 1           2             5    8     1       0.7683016114E-01       5    8    1         0.4170237206E+01      0.1001800462E+02
          0                 2           2             5    7     1      -0.1019920962E+00       5    8    1        -0.5586950909E+01      0.1358384570E+02
          0                 3           2             4    7     1      -0.1761018321E-01       4    7    1        -0.9451978964E+00      0.2303472523E+01
          0                 4           2             4    7     1       0.1199357559E-02       4    7    1         0.6617558176E-01      0.1612749371E+00
          0                 5           1             4    7     1      -0.4773488542E-04       4    7    1        -0.2707321588E-02      0.6599133600E-02

    ------------------------------------------------
       NWT REQUIRED            5 OUTER ITERATIONS 
       AND A TOTAL OF          9 INNER ITERATIONS.
    ------------------------------------------------

 NO OUTPUT CONTROL FOR STRESS PERIOD   45   TIME STEP   17
 
 SOLVING FOR HEAD 
                                                   Max.-Head-Change                         Max.-Flux-Residual
  Residual-Control   Outer-Iter.   Inner-Iter.     Column Row Layer    Maximum-Head-Change  Column Row Layer    Maximum-Flux-Residual          L2-NORM 
          0                 1           2             5    8     1       0.7711386964E-01       5    8    1         0.4185042480E+01      0.1006947249E+02
          0                 2           2             5    7     1      -0.1024300216E+00       5    8    1        -0.5609618228E+01      0.1364135786E+02
          0                 3           2             4    7     1      -0.1717952092E-01       4    7    1        -0.9220544449E+00      0.2247153136E+01
          0                 4           2             4    7     1       0.1170026958E-02       4    7    1         0.6455529668E-01      0.1573310508E+00
          0                 5           1             4    7     1      -0.4656751605E-04       4    7    1        -0.2641035390E-02      0.6437753737E-02

    ------------------------------------------------
       NWT REQUIRED            5 OUTER ITERATIONS 
       AND A TOTAL OF          9 INNER ITERATIONS.
    ------------------------------------------------

 NO OUTPUT CONTROL FOR STRESS PERIOD   45   TIME STEP   18
 
 SOLVING FOR HEAD 
                                                   Max.-Head-Change                         Max.-Flux-Residual
  Residual-Control   Outer-Iter.   Inner-Iter.     Column Row Layer    Maximum-Head-Change  Column Row Layer    Maximum-Flux-Residual          L2-NORM 
          0                 1           2             5    8     1       0.7739672223E-01       5    8    1         0.4199791449E+01      0.1012030975E+02
          0                 2           2             4    7     1      -0.1028583949E+00       5    8    1        -0.5631733457E+01      0.1369745936E+02
          0                 3           2             4    7     1      -0.1676138401E-01       4    7    1        -0.8996132960E+00      0.2192269045E+01
          0                 4           2             4    7     1       0.1141549403E-02       4    7    1         0.6298417954E-01      0.1534876612E+00
          0                 5           1             4    7     1      -0.4543409870E-04       4    7    1        -0.2576760690E-02      0.6280487860E-02

    ------------------------------------------------
       NWT REQUIRED            5 OUTER ITERATIONS 
       AND A TOTAL OF          9 INNER ITERATIONS.
    ------------------------------------------------

 NO OUTPUT CONTROL FOR STRESS PERIOD   45   TIME STEP   19
 
 SOLVING FOR HEAD 
                                                   Max.-Head-Change                         Max.-Flux-Residual
  Residual-Control   Outer-Iter.   Inner-Iter.     Column Row Layer    Maximum-Head-Change  Column Row Layer    Maximum-Flux-Residual          L2-NORM 
          0                 1           2             5    8     1       0.7767767114E-01       5    8    1         0.4214460078E+01      0.1017042605E+02
          0                 2           2             4    7     1      -0.1032962740E+00       5    8    1        -0.5653322334E+01      0.1375219740E+02
          0                 3           2             4    7     1      -0.1635299470E-01       4    7    1        -0.8776926525E+00      0.2138784259E+01
          0                 4           2             4    7     1       0.1113735714E-02       4    7    1         0.6144950309E-01      0.1497422388E+00
          0                 5           1             4    7     1      -0.4432710292E-04       4    7    1        -0.2513976754E-02      0.6153167156E-02

    ------------------------------------------------
       NWT REQUIRED            5 OUTER ITERATIONS 
       AND A TOTAL OF          9 INNER ITERATIONS.
    ------------------------------------------------

 NO OUTPUT CONTROL FOR STRESS PERIOD   45   TIME STEP   20
 
 SOLVING FOR HEAD 
                                                   Max.-Head-Change                         Max.-Flux-Residual
  Residual-Control   Outer-Iter.   Inner-Iter.     Column Row Layer    Maximum-Head-Change  Column Row Layer    Maximum-Flux-Residual          L2-NORM 
          0                 1           2             5    8     1       0.7795701618E-01       5    8    1         0.4229054945E+01      0.1021986290E+02
          0                 2           2             4    7     1      -0.1037237869E+00       5    8    1        -0.5674408879E+01      0.1380564718E+02
          0                 3           2             4    7     1      -0.1595447254E-01       4    7    1        -0.8563016857E+00      0.2086592333E+01
          0                 4           2             4    7     1       0.1086594034E-02       4    7    1         0.5995190930E-01      0.1460873254E+00
          0                 5           1             4    7     1      -0.4324685360E-04       4    7    1        -0.2452709879E-02      0.5977671116E-02

    ------------------------------------------------
       NWT REQUIRED            5 OUTER ITERATIONS 
       AND A TOTAL OF          9 INNER ITERATIONS.
    ------------------------------------------------

 NO OUTPUT CONTROL FOR STRESS PERIOD   45   TIME STEP   21
 
 SOLVING FOR HEAD 
                                                   Max.-Head-Change                         Max.-Flux-Residual
  Residual-Control   Outer-Iter.   Inner-Iter.     Column Row Layer    Maximum-Head-Change  Column Row Layer    Maximum-Flux-Residual          L2-NORM 
          0                 1           2             5    8     1       0.7823446986E-01       5    8    1         0.4243558880E+01      0.1026863518E+02
          0                 2           2             4    7     1      -0.1041414390E+00       5    8    1        -0.5695017601E+01      0.1385786955E+02
          0                 3           2             4    7     1      -0.1556551566E-01       4    7    1        -0.8354241975E+00      0.2035653520E+01
          0                 4           2             4    7     1       0.1060103803E-02       4    7    1         0.5849026418E-01      0.1425201323E+00
          0                 5           1             4    7     1      -0.4219253253E-04       4    7    1        -0.2392913662E-02      0.5831704606E-02

    ------------------------------------------------
       NWT REQUIRED            5 OUTER ITERATIONS 
       AND A TOTAL OF          9 INNER ITERATIONS.
    ------------------------------------------------

 NO OUTPUT CONTROL FOR STRESS PERIOD   45   TIME STEP   22
 
 SOLVING FOR HEAD 
                                                   Max.-Head-Change                         Max.-Flux-Residual
  Residual-Control   Outer-Iter.   Inner-Iter.     Column Row Layer    Maximum-Head-Change  Column Row Layer    Maximum-Flux-Residual          L2-NORM 
          0                 1           2             5    8     1       0.7850990908E-01       5    8    1         0.4257964945E+01      0.1031674463E+02
          0                 2           2             4    7     1      -0.1045496712E+00       5    8    1        -0.5715169264E+01      0.1390891825E+02
          0                 3           2             4    7     1      -0.1518565789E-01       4    7    1        -0.8150351618E+00      0.1985906896E+01
          0                 4           2             4    7     1       0.1034233273E-02       4    7    1         0.5706281563E-01      0.1390364113E+00
          0                 5           1             4    7     1      -0.4116287512E-04       4    7    1        -0.2334516412E-02      0.5689151197E-02

    ------------------------------------------------
       NWT REQUIRED            5 OUTER ITERATIONS 
       AND A TOTAL OF          9 INNER ITERATIONS.
    ------------------------------------------------

 NO OUTPUT CONTROL FOR STRESS PERIOD   45   TIME STEP   23
 
 SOLVING FOR HEAD 
                                                   Max.-Head-Change                         Max.-Flux-Residual
  Residual-Control   Outer-Iter.   Inner-Iter.     Column Row Layer    Maximum-Head-Change  Column Row Layer    Maximum-Flux-Residual          L2-NORM 
          0                 1           2             5    8     1       0.7878322618E-01       5    8    1         0.4272266697E+01      0.1036419926E+02
          0                 2           2             4    7     1      -0.1049488527E+00       5    8    1        -0.5734882297E+01      0.1395884107E+02
          0                 3           2             4    7     1      -0.1481450025E-01       4    7    1        -0.7951131644E+00      0.1937299986E+01
          0                 4           2             4    7     1       0.1008955272E-02       4    7    1         0.5566806442E-01      0.1356324669E+00
          0                 5           1             4    7     1      -0.4015680102E-04       4    7    1        -0.2277456837E-02      0.5549863234E-02

    ------------------------------------------------
       NWT REQUIRED            5 OUTER ITERATIONS 
       AND A TOTAL OF          9 INNER ITERATIONS.
    ------------------------------------------------

 NO OUTPUT CONTROL FOR STRESS PERIOD   45   TIME STEP   24
 
 SOLVING FOR HEAD 
                                                   Max.-Head-Change                         Max.-Flux-Residual
  Residual-Control   Outer-Iter.   Inner-Iter.     Column Row Layer    Maximum-Head-Change  Column Row Layer    Maximum-Flux-Residual          L2-NORM 
          0                 1           2             5    8     1       0.7905447192E-01       5    8    1         0.4286466292E+01      0.1041100744E+02
          0                 2           2             4    7     1      -0.1053393707E+00       5    8    1        -0.5754176943E+01      0.1400768880E+02
          0                 3           2             4    7     1      -0.1445158030E-01       4    7    1        -0.7756333870E+00      0.1889772086E+01
          0                 4           2             4    7     1       0.9842383029E-03       4    7    1         0.5430427303E-01      0.1323040603E+00
          0                 5           1             4    7     1      -0.3917305612E-04       4    7    1        -0.2221663814E-02      0.5413666069E-02

    ------------------------------------------------
       NWT REQUIRED            5 OUTER ITERATIONS 
       AND A TOTAL OF          9 INNER ITERATIONS.
    ------------------------------------------------

 NO OUTPUT CONTROL FOR STRESS PERIOD   45   TIME STEP   25
 
 SOLVING FOR HEAD 
                                                   Max.-Head-Change                         Max.-Flux-Residual
  Residual-Control   Outer-Iter.   Inner-Iter.     Column Row Layer    Maximum-Head-Change  Column Row Layer    Maximum-Flux-Residual          L2-NORM 
          0                 1           2             5    8     1       0.7932327669E-01       5    8    1         0.4300542958E+01      0.1045716773E+02
          0                 2           2             4    7     1      -0.1057216330E+00       5    8    1        -0.5773070199E+01      0.1405550888E+02
          0                 3           2             4    7     1      -0.1409655857E-01       4    7    1        -0.7565776007E+00      0.1843278999E+01
          0                 4           2             4    7     1       0.9600592478E-03       4    7    1         0.5297016526E-01      0.1290481115E+00
          0                 5           1             4    7     1      -0.3821072055E-04       4    7    1        -0.2167085161E-02      0.5280432738E-02

    ------------------------------------------------
       NWT REQUIRED            5 OUTER ITERATIONS 
       AND A TOTAL OF          9 INNER ITERATIONS.
    ------------------------------------------------

 NO OUTPUT CONTROL FOR STRESS PERIOD   45   TIME STEP   26
 
 SOLVING FOR HEAD 
                                                   Max.-Head-Change                         Max.-Flux-Residual
  Residual-Control   Outer-Iter.   Inner-Iter.     Column Row Layer    Maximum-Head-Change  Column Row Layer    Maximum-Flux-Residual          L2-NORM 
          0                 1           2             5    8     1       0.7958986433E-01       5    8    1         0.4314508674E+01      0.1050269713E+02
          0                 2           2             4    7     1      -0.1060959227E+00       5    8    1        -0.5791578520E+01      0.1410234027E+02
          0                 3           2             4    7     1      -0.1374921093E-01       4    7    1        -0.7379337777E+00      0.1797791063E+01
          0                 4           2             4    7     1       0.9364028415E-03       4    7    1         0.5166489907E-01      0.1258625139E+00
          0                 5           1             4    7     1      -0.3726918631E-04       4    7    1        -0.2113686418E-02      0.5150079419E-02

    ------------------------------------------------
       NWT REQUIRED            5 OUTER ITERATIONS 
       AND A TOTAL OF          9 INNER ITERATIONS.
    ------------------------------------------------

 NO OUTPUT CONTROL FOR STRESS PERIOD   45   TIME STEP   27
 
 SOLVING FOR HEAD 
                                                   Max.-Head-Change                         Max.-Flux-Residual
  Residual-Control   Outer-Iter.   Inner-Iter.     Column Row Layer    Maximum-Head-Change  Column Row Layer    Maximum-Flux-Residual          L2-NORM 
          0                 1           2             5    8     1       0.7985388948E-01       5    8    1         0.4328344121E+01      0.1054758898E+02
          0                 2           2             4    7     1      -0.1064625713E+00       5    8    1        -0.5809715711E+01      0.1414822188E+02
          0                 3           2             4    7     1      -0.1340901662E-01       4    7    1        -0.7196739657E+00      0.1753240227E+01
          0                 4           2             4    7     1       0.9132336182E-03       4    7    1         0.5038651745E-01      0.1227425018E+00
          0                 5           1             4    7     1      -0.3634704285E-04       4    7    1        -0.2061387536E-02      0.5022405153E-02

    ------------------------------------------------
       NWT REQUIRED            5 OUTER ITERATIONS 
       AND A TOTAL OF          9 INNER ITERATIONS.
    ------------------------------------------------

 NO OUTPUT CONTROL FOR STRESS PERIOD   45   TIME STEP   28
 
 SOLVING FOR HEAD 
                                                   Max.-Head-Change                         Max.-Flux-Residual
  Residual-Control   Outer-Iter.   Inner-Iter.     Column Row Layer    Maximum-Head-Change  Column Row Layer    Maximum-Flux-Residual          L2-NORM 
          0                 1           2             5    8     1       0.8011560057E-01       5    8    1         0.4342062105E+01      0.1059186295E+02
          0                 2           2             4    7     1      -0.1068219008E+00       5    8    1        -0.5827499741E+01      0.1419319731E+02
          0                 3           2             4    7     1      -0.1307585543E-01       4    7    1        -0.7017917103E+00      0.1709610633E+01
          0                 4           2             4    7     1       0.8905433892E-03       4    7    1         0.4913456860E-01      0.1196869929E+00
          0                 5           1             4    7     1      -0.3544396274E-04       4    7    1        -0.2010169985E-02      0.4897374057E-02

    ------------------------------------------------
       NWT REQUIRED            5 OUTER ITERATIONS 
       AND A TOTAL OF          9 INNER ITERATIONS.
    ------------------------------------------------

 NO OUTPUT CONTROL FOR STRESS PERIOD   45   TIME STEP   29
 
 SOLVING FOR HEAD 
                                                   Max.-Head-Change                         Max.-Flux-Residual
  Residual-Control   Outer-Iter.   Inner-Iter.     Column Row Layer    Maximum-Head-Change  Column Row Layer    Maximum-Flux-Residual          L2-NORM 
          0                 1           2             5    8     1       0.8037466752E-01       5    8    1         0.4355644815E+01      0.1063551571E+02
          0                 2           2             4    7     1      -0.1071741572E+00       5    8    1        -0.5844940751E+01      0.1423729518E+02
          0                 3           2             4    7     1      -0.1274935475E-01       4    7    1        -0.6842670112E+00      0.1666853440E+01
          0                 4           2             4    7     1       0.8683067790E-03       4    7    1         0.4790765223E-01      0.1166925499E+00
          0                 5           1             4    7     1      -0.3455893723E-04       4    7    1        -0.1959976535E-02      0.4774838769E-02

    ------------------------------------------------
       NWT REQUIRED            5 OUTER ITERATIONS 
       AND A TOTAL OF          9 INNER ITERATIONS.
    ------------------------------------------------

 NO OUTPUT CONTROL FOR STRESS PERIOD   45   TIME STEP   30



 STREAM LISTING     PERIOD     45   STEP       30

 LAYER ROW COL. STREAM  RCH.  FLOW INTO     FLOW TO   FLOW OUT OF   OVRLND.     DIRECT     STREAM       STREAM     STREAM     STREAM   STREAMBED  STREAMBED
                SEG.NO.  NO.  STRM. RCH.    AQUIFER    STRM. RCH.    RUNOFF     PRECIP       ET          HEAD       DEPTH      WIDTH   CONDCTNC.   GRADIENT

   1    1    1     1     1    1.3875E+01  1.7894E-01   1.3696E+01  0.000E+00  0.000E+00  0.000E+00  1.09404E+03  9.876E-01  9.972E+00  4.487E-02  1.329E+00
   1    2    2     1     2    1.3696E+01  2.7573E-01   1.3420E+01  0.000E+00  0.000E+00  0.000E+00  1.08904E+03  9.829E-01  9.890E+00  6.923E-02  1.328E+00
   1    3    3     1     3    1.3420E+01  2.3380E-01   1.3186E+01  0.000E+00  0.000E+00  0.000E+00  1.08340E+03  9.775E-01  9.797E+00  5.878E-02  1.326E+00
   1    3    4     1     4    1.3186E+01  2.1419E-01   1.2972E+01  0.000E+00  0.000E+00  0.000E+00  1.07838E+03  9.727E-01  9.714E+00  5.391E-02  1.324E+00
   1    4    5     2     1    1.0972E+01  2.9101E-01   1.0681E+01  0.000E+00  0.000E+00  0.000E+00  1.07266E+03  7.309E-01  1.200E+01  7.800E-02  1.244E+00
   1    5    6     2     2    1.0681E+01  2.2322E-01   1.0458E+01  0.000E+00  0.000E+00  0.000E+00  1.06723E+03  7.204E-01  1.200E+01  6.000E-02  1.240E+00
   1    6    6     2     3    1.0458E+01  2.2267E-01   1.0235E+01  0.000E+00  0.000E+00  0.000E+00  1.06250E+03  7.112E-01  1.200E+01  6.000E-02  1.237E+00
   1    7    6     2     4    1.0235E+01  2.2212E-01   1.0013E+01  0.000E+00  0.000E+00  0.000E+00  1.05778E+03  7.020E-01  1.200E+01  6.000E-02  1.234E+00
   1    8    6     2     5    1.0013E+01  2.2157E-01   9.7913E+00  0.000E+00  0.000E+00  0.000E+00  1.05305E+03  6.928E-01  1.200E+01  6.000E-02  1.231E+00
   1    3    5     3     1    2.0000E+00  2.8252E-01   1.7175E+00  0.000E+00  0.000E+00  0.000E+00  1.07555E+03  1.909E+00  9.636E+00  7.227E-02  1.955E+00
   1    3    6     3     2    1.7175E+00  2.4905E-01   1.4684E+00  0.000E+00  0.000E+00  0.000E+00  1.07264E+03  1.727E+00  8.909E+00  6.682E-02  1.864E+00
   1    3    7     3     3    1.4684E+00  1.9718E-01   1.2712E+00  0.000E+00  0.000E+00  0.000E+00  1.06987E+03  1.555E+00  8.218E+00  5.547E-02  1.777E+00
   1    4    8     3     4    1.2712E+00  2.2567E-01   1.0456E+00  0.000E+00  0.000E+00  0.000E+00  1.06682E+03  1.364E+00  7.455E+00  6.709E-02  1.682E+00
   1    5    8     3     5    1.0456E+00  1.5790E-01   8.8768E-01  0.000E+00  0.000E+00  0.000E+00  1.06362E+03  1.164E+00  6.655E+00  4.991E-02  1.582E+00
   1    6    8     3     6    8.8768E-01  5.5980E-02   8.3170E-01  0.000E+00  0.000E+00  0.000E+00  1.06158E+03  1.036E+00  6.145E+00  1.844E-02  1.518E+00
   1    5   10     4     1    1.0000E+01  9.0919E-02   9.9091E+00  0.000E+00  0.000E+00  0.000E+00  1.07836E+03  6.368E-01  1.000E+01  2.500E-02  1.212E+00
   1    5    9     4     2    9.9091E+00  1.8158E-01   9.7275E+00  0.000E+00  0.000E+00  0.000E+00  1.07154E+03  6.315E-01  1.000E+01  5.000E-02  1.211E+00
   1    6    8     4     3    9.7275E+00  1.2689E-01   9.6006E+00  0.000E+00  0.000E+00  0.000E+00  1.06381E+03  6.256E-01  1.000E+01  3.500E-02  1.209E+00
   1    6    8     5     1    1.0432E+01  2.2686E-01   1.0205E+01  0.000E+00  0.000E+00  0.000E+00  1.05868E+03  6.790E-01  1.542E+01  6.166E-02  1.226E+00
   1    7    7     5     2    1.0205E+01  2.7894E-01   9.9265E+00  0.000E+00  0.000E+00  0.000E+00  1.05417E+03  6.732E-01  1.519E+01  7.594E-02  1.224E+00
   1    8    7     5     3    9.9265E+00  1.9221E-01   9.7343E+00  0.000E+00  0.000E+00  0.000E+00  1.04992E+03  6.676E-01  1.497E+01  5.241E-02  1.223E+00
   1    8    6     5     4    9.7343E+00  1.3577E-01   9.5985E+00  0.000E+00  0.000E+00  0.000E+00  1.04691E+03  6.637E-01  1.482E+01  3.706E-02  1.221E+00
   1    9    6     6     1    9.5985E+00  2.2097E-01   9.3776E+00  0.000E+00  0.000E+00  0.000E+00  1.04341E+03  6.828E-01  1.200E+01  6.000E-02  1.228E+00
   1   10    7     6     2    9.3776E+00  2.2039E-01   9.1572E+00  0.000E+00  0.000E+00  0.000E+00  1.03885E+03  6.732E-01  1.200E+01  6.000E-02  1.224E+00
   1   11    7     6     3    9.1572E+00  2.1981E-01   8.9374E+00  0.000E+00  0.000E+00  0.000E+00  1.03430E+03  6.636E-01  1.200E+01  6.000E-02  1.221E+00
   1   12    7     6     4    8.9374E+00  2.1923E-01   8.7181E+00  0.000E+00  0.000E+00  0.000E+00  1.02974E+03  6.539E-01  1.200E+01  6.000E-02  1.218E+00
   1   13    7     6     5    8.7181E+00  3.8576E-03   8.7143E+00  0.000E+00  0.000E+00  0.000E+00  1.02656E+03  6.489E-01  1.200E+01  2.400E-02  5.358E-02
   1   14    9     7     1    1.5000E+02  1.4085E+00   1.4859E+02  0.000E+00  0.000E+00  0.000E+00  1.03987E+03  2.288E+00  5.529E+01  5.593E-01  8.395E-01
   1   13    8     7     2    1.4859E+02  2.0575E+00   1.4653E+02  0.000E+00  0.000E+00  0.000E+00  1.03478E+03  2.278E+00  5.525E+01  6.147E-01  1.116E+00
   1   13    7     7     3    1.4653E+02  1.8369E+00   1.4470E+02  0.000E+00  0.000E+00  0.000E+00  1.02969E+03  2.268E+00  5.521E+01  5.583E-01  1.097E+00
   1   13    6     8     1    1.5341E+02  1.1799E+00   1.5223E+02  0.000E+00  0.000E+00  0.000E+00  1.02471E+03  2.837E+00  4.113E+01  4.191E-01  9.384E-01
   1   13    5     8     2    1.5223E+02  4.2482E-01   1.5181E+02  0.000E+00  0.000E+00  0.000E+00  1.01846E+03  2.831E+00  4.105E+01  4.183E-01  3.385E-01
   1   13    4     8     3    1.5181E+02 -1.5684E+00   1.5338E+02  0.000E+00  0.000E+00  0.000E+00  1.01221E+03  2.835E+00  4.111E+01  4.189E+00 -1.248E-01
   1   13    3     8     4    1.5338E+02 -3.2071E+00   1.5658E+02  0.000E+00  0.000E+00  0.000E+00  1.00598E+03  2.852E+00  4.135E+01  4.213E+00 -2.537E-01
   1   13    2     8     5    1.5658E+02 -2.4682E+00   1.5905E+02  0.000E+00  0.000E+00  0.000E+00  9.99746E+02  2.871E+00  4.163E+01  4.242E+00 -1.939E-01
   1   13    1     8     6    1.5905E+02 -1.9539E+00   1.6100E+02  0.000E+00  0.000E+00  0.000E+00  9.94761E+02  2.886E+00  4.185E+01  2.559E+00 -2.546E-01
   1    8    6     9     1    9.7913E+00  0.0000E+00   9.7913E+00  0.000E+00  0.000E+00  0.000E+00  1.08099E+03  2.238E+00  4.000E+00  0.000E+00  1.746E+00
   1    8    5     9     2    9.7913E+00  0.0000E+00   9.7913E+00  0.000E+00  0.000E+00  0.000E+00  1.08049E+03  2.238E+00  4.000E+00  0.000E+00  1.746E+00





UNSATURATED ZONE PACKAGE VOLUMETRIC BUDGET FOR  TIME STEP    30 STRESS PERIOD   45
  ------------------------------------------------------------------------------



     CUMULATIVE VOLUMES      L**3       RATES FOR THIS TIME STEP      L**3/T
     ------------------                 ------------------------

           IN:                                      IN:
           ---                                      ---
        INFILTRATION =  2149468430.2802          INFILTRATION =          49.6159

          OUT:                                     OUT:
          ----                                     ----
              UZF ET =  1667911092.4836                UZF ET =          49.5810
        UZF RECHARGE =    89935077.6917          UZF RECHARGE =       0.0000E+00

            IN - OUT =   391622260.1050              IN - OUT =       3.4853E-02

          STORAGE:                                 STORAGE:
          --------                                 --------
      STORAGE CHANGE =   391626823.3621        STORAGE CHANGE =       3.4855E-02

 PERCENT DISCREPANCY IS DIFFERENCE BETWEEN IN-OUT MINUS CHANGE IN STORAGE
 DIVIDED BY THE AVERAGE OF IN AND OUT TIMES 100

 PERCENT DISCREPANCY =          -0.00     PERCENT DISCREPANCY =           0.00






1
  VOLUMETRIC BUDGET FOR AGRICULTURAL FIELDS AT  END OF TIME STEP   30, STRESS PERIOD  45
  ------------------------------------------------------------------------------

     CUMULATIVE VOLUMES      L**3       RATES FOR THIS TIME STEP      L**3/T
     ------------------                 ------------------------

           IN:                                      IN:
           ---                                      ---
               AG WELLS  =  1349745920.0000                 AG WELLS  =          38.9769
      DIVERSION SEGMENTS =   701790656.0000        DIVERSION SEGMENTS =           9.7913
       IRRIGATION PONDS  =           0.0000         IRRIGATION PONDS  =           0.0000
           GW IRRIGATION =           0.0000             GW IRRIGATION =           0.0000
           SW IRRIGATION =           0.0000             SW IRRIGATION =           0.0000
        SYSTEM LOSSES GW =           0.0000          SYSTEM LOSSES GW =           0.0000
        SYSTEM LOSSES SW =           0.0000          SYSTEM LOSSES SW =           0.0000

                TOTAL IN =  2051536640.0000                  TOTAL IN =          48.7682

          OUT:                                     OUT:
          ----                                     ----
               AG WELLS  =           0.0000                 AG WELLS  =           0.0000
      DIVERSION SEGMENTS =           0.0000        DIVERSION SEGMENTS =           0.0000
       IRRIGATION PONDS  =           0.0000         IRRIGATION PONDS  =           0.0000
           GW IRRIGATION =  1349745920.0000             GW IRRIGATION =          38.9769
           SW IRRIGATION =   701804480.0000             SW IRRIGATION =           9.7915
        SYSTEM LOSSES GW =           0.0000          SYSTEM LOSSES GW =           0.0000
        SYSTEM LOSSES SW =           0.0000          SYSTEM LOSSES SW =           0.0000

               TOTAL OUT =  2051550464.0000                 TOTAL OUT =          48.7684

                IN - OUT =      -13824.0000                  IN - OUT =      -1.9836E-04

     PERCENT DISCREPANCY =          -0.00         PERCENT DISCREPANCY =          -0.00



1
  VOLUMETRIC BUDGET FOR ENTIRE MODEL AT END OF TIME STEP   30, STRESS PERIOD  45
  ------------------------------------------------------------------------------

     CUMULATIVE VOLUMES      L**3       RATES FOR THIS TIME STEP      L**3/T
     ------------------                 ------------------------

           IN:                                      IN:
           ---                                      ---
             STORAGE     =  1955380736.0000               STORAGE     =          35.9460
       CONSTANT HEAD     =           0.0000         CONSTANT HEAD     =           0.0000
     HEAD DEP BOUNDS     =    33456534.0000       HEAD DEP BOUNDS     =           0.2907
      STREAM LEAKAGE     =  1398362368.0000        STREAM LEAKAGE     =          12.2766
        UZF RECHARGE     =    89935088.0000          UZF RECHARGE     =           0.0000
               GW ET     =           0.0000                 GW ET     =           0.0000
     SURFACE LEAKAGE     =           0.0000       SURFACE LEAKAGE     =           0.0000
           AG WELLS      =           0.0000             AG WELLS      =           0.0000

                TOTAL IN =  3477134592.0000                  TOTAL IN =          48.5133

          OUT:                                     OUT:
          ----                                     ----
             STORAGE     =   966573568.0000               STORAGE     =       5.2674E-02
       CONSTANT HEAD     =           0.0000         CONSTANT HEAD     =           0.0000
     HEAD DEP BOUNDS     =    33323718.0000       HEAD DEP BOUNDS     =           0.2859
      STREAM LEAKAGE     =  1127456256.0000        STREAM LEAKAGE     =           9.1977
        UZF RECHARGE     =           0.0000          UZF RECHARGE     =           0.0000
               GW ET     =           0.0000                 GW ET     =           0.0000
     SURFACE LEAKAGE     =           0.0000       SURFACE LEAKAGE     =           0.0000
           AG WELLS      =  1349745920.0000             AG WELLS      =          38.9769

               TOTAL OUT =  3477099520.0000                 TOTAL OUT =          48.5132

                IN - OUT =       35072.0000                  IN - OUT =       1.4877E-04

     PERCENT DISCREPANCY =           0.00         PERCENT DISCREPANCY =           0.00






         TIME SUMMARY AT END OF TIME STEP   30 IN STRESS PERIOD   45
                    SECONDS     MINUTES      HOURS       DAYS        YEARS
                    -----------------------------------------------------------
   TIME STEP LENGTH  87667.      1461.1      24.352      1.0147     2.77799E-03
 STRESS PERIOD TIME 2.63000E+06  43833.      730.56      30.440     8.33397E-02
         TOTAL TIME 1.15805E+08 1.93009E+06  32168.      1340.3      3.6696    
1
1
                            STRESS PERIOD NO.   46, LENGTH =   2630000.    
                            -----------------------------------------------

                              NUMBER OF TIME STEPS =    30

                               MULTIPLIER FOR DELT =     1.000

                            INITIAL TIME STEP SIZE =   87666.66    

 REUSING NON-PARAMETER GHB CELLS FROM LAST STRESS PERIOD

      2 GHB CELLS

 REUSING STREAM SEGMENT DATA FROM LAST STRESS PERIOD



            AREAL INFILTRATION RATE
 READING ON UNIT   19 WITH FORMAT: (FREE)              

            1           2           3           4           5           6           7           8           9          10
 ........................................................................................................................
   1   1.0000E-10  2.0000E-10   0.000       0.000       0.000       0.000       0.000       0.000       0.000       0.000    
   2   2.0000E-10  1.0000E-10  2.0000E-10   0.000       0.000      8.0000E-10  8.0000E-10  5.0000E-10   0.000       0.000    
   3    0.000      5.0000E-10  1.0000E-10  1.0000E-10  8.0000E-10  8.0000E-10  5.0000E-10  5.0000E-10   0.000       0.000    
   4   8.0000E-10  5.0000E-10  1.0000E-10  1.0000E-10  1.0000E-10  1.0000E-10  1.0000E-10  1.0000E-10  2.0000E-10   0.000    
   5   8.0000E-10  5.0000E-10  1.0000E-10  1.0000E-10  1.0000E-10  1.0000E-10  1.0000E-10  1.0000E-10  1.0000E-10  1.0000E-10
   6   8.0000E-10  5.0000E-10  5.0000E-10  2.0000E-10  2.0000E-10  1.0000E-10  1.0000E-10  1.0000E-10  1.0000E-10  5.0000E-10
   7   8.0000E-10  5.0000E-10  5.0000E-10  2.0000E-10  2.0000E-10  1.0000E-10  1.0000E-10  2.0000E-10  2.0000E-10   0.000    
   8    0.000      5.0000E-10  5.0000E-10  2.0000E-10  2.0000E-10  1.0000E-10  1.0000E-10  2.0000E-10  5.0000E-10   0.000    
   9    0.000      5.0000E-10  5.0000E-10  2.0000E-10  2.0000E-10  1.0000E-10  1.0000E-10  2.0000E-10  5.0000E-10   0.000    
  10    0.000      5.0000E-10  5.0000E-10  2.0000E-10  2.0000E-10  1.0000E-10  1.0000E-10  2.0000E-10  5.0000E-10  8.0000E-10
  11    0.000      1.0000E-10  1.0000E-10  1.0000E-10  1.0000E-10  1.0000E-10  1.0000E-10  2.0000E-10  5.0000E-10   0.000    
  12   1.0000E-10  1.0000E-10  1.0000E-10  1.0000E-10  1.0000E-10  1.0000E-10  1.0000E-10  1.0000E-10  2.0000E-10   0.000    
  13   1.0000E-10  1.0000E-10  2.0000E-10  2.0000E-10  2.0000E-10  2.0000E-10  2.0000E-10  1.0000E-10  1.0000E-10   0.000    
  14    0.000      2.0000E-10  5.0000E-10  5.0000E-10  5.0000E-10  5.0000E-10  5.0000E-10  2.0000E-10  1.0000E-10   0.000    
  15    0.000       0.000      8.0000E-10  8.0000E-10  8.0000E-10  8.0000E-10   0.000       0.000       0.000       0.000    

                  ET RATE =  7.500000E-08

 USING ET EXTINCTION DEPTH FROM PREVIOUS STRESS PERIOD. CURRENT PERIOD IS:      46

 USING EXTINCTION WATER CONTENT FROM PREVIOUS STRESS PERIOD. CURRENT PERIOD IS:      46

 USING AIR ENTRY PRESSURE FROM PREVIOUS STRESS PERIOD. CURRENT PERIOD IS:      46

 USING ROOT PRESSURE HEAD FROM PREVIOUS STRESS PERIOD. CURRENT PERIOD IS:      46

 USING ROOT ACTIVITY FROM PREVIOUS STRESS PERIOD. CURRENT PERIOD IS:      46

 PROCESSING AG STRESS PERIOD DATA

 READING AG STRESS PERIOD DATA

 READING IRRIGATION SEGMENT

 READING IRRIGATION WELL

 READING SUPPLEMENTAL WELL

 NO IRRPOND OR REUSING IRRPOND DATA FROM LAST STRESS PERIOD

 END PROCESSING AG STRESS PERIOD DATA OPTIONS
 
 SOLVING FOR HEAD 
                                                   Max.-Head-Change                         Max.-Flux-Residual
  Residual-Control   Outer-Iter.   Inner-Iter.     Column Row Layer    Maximum-Head-Change  Column Row Layer    Maximum-Flux-Residual          L2-NORM 
          0                 1           2             5    8     1       0.8063118714E-01       5    8    1         0.4369105966E+01      0.1067301696E+02
          0                 2           2             5    8     1      -0.1258258767E-01       5    8    1        -0.6978248714E+00      0.1672895305E+01
          0                 3           2             5    8     1       0.8568282906E-03       5    8    1         0.4884781065E-01      0.1171028765E+00
          0                 4           1             5    8     1      -0.3409399591E-04       5    8    1        -0.1997878023E-02      0.4789513423E-02

    ------------------------------------------------
       NWT REQUIRED            4 OUTER ITERATIONS 
       AND A TOTAL OF          7 INNER ITERATIONS.
    ------------------------------------------------

 NO OUTPUT CONTROL FOR STRESS PERIOD   46   TIME STEP    1
 
 SOLVING FOR HEAD 
                                                   Max.-Head-Change                         Max.-Flux-Residual
  Residual-Control   Outer-Iter.   Inner-Iter.     Column Row Layer    Maximum-Head-Change  Column Row Layer    Maximum-Flux-Residual          L2-NORM 
          0                 1           2             5    8     1       0.7753593519E-01       5    8    1         0.4197724566E+01      0.1037220900E+02
          0                 2           2             5    8     1      -0.7879406857E-02       5    8    1        -0.4383392523E+00      0.1079347379E+01
          0                 3           2             4    7     1      -0.1558469809E-01       4    7    1        -0.8363959140E+00      0.2052266004E+01
          0                 4           2             4    7     1       0.1638289049E-01       4    7    1         0.9037433768E+00      0.2213180287E+01
          0                 5           2             4    7     1      -0.2785226594E-03       4    7    1        -0.1579378867E-01      0.3886338345E-01
          0                 6           2             4    7     1      -0.5830298999E-03       5    6    1        -0.3305811848E-01      0.8180122453E-01
          0                 7           2             4    7     1      -0.2004363798E-02       4    7    1        -0.1136472167E+00      0.2811778026E+00
          0                 8           2             4    7     1       0.2499717294E-02       5    8    1         0.1456738511E+00      0.3568451032E+00
          0                 9           1             4    7     1       0.8627739774E-04       4    7    1         0.5027673677E-02      0.1278531906E-01

    ------------------------------------------------
       NWT REQUIRED            9 OUTER ITERATIONS 
       AND A TOTAL OF         17 INNER ITERATIONS.
    ------------------------------------------------

 NO OUTPUT CONTROL FOR STRESS PERIOD   46   TIME STEP    2
 
 SOLVING FOR HEAD 
                                                   Max.-Head-Change                         Max.-Flux-Residual
  Residual-Control   Outer-Iter.   Inner-Iter.     Column Row Layer    Maximum-Head-Change  Column Row Layer    Maximum-Flux-Residual          L2-NORM 
          0                 1           2             5    6     1       0.7456953532E-01       5    8    1         0.4029569353E+01      0.1007049727E+02
          0                 2           2             5    6     1      -0.1967043249E-01       5    8    1        -0.1085402472E+01      0.2637430190E+01
          0                 3           2             4    7     1      -0.7758082005E-02       4    7    1        -0.4163736231E+00      0.1017028335E+01
          0                 4           2             4    7     1       0.7401360896E-02       4    7    1         0.4082894343E+00      0.9996812592E+00
          0                 5           2             4    7     1      -0.2945772325E-03       4    7    1        -0.1670350591E-01      0.4090658744E-01
          0                 6           1             4    7     1       0.3634961019E-05       4    7    1         0.2118477396E-03      0.5189863348E-03

    ------------------------------------------------
       NWT REQUIRED            6 OUTER ITERATIONS 
       AND A TOTAL OF         11 INNER ITERATIONS.
    ------------------------------------------------

 NO OUTPUT CONTROL FOR STRESS PERIOD   46   TIME STEP    3
 
 SOLVING FOR HEAD 
                                                   Max.-Head-Change                         Max.-Flux-Residual
  Residual-Control   Outer-Iter.   Inner-Iter.     Column Row Layer    Maximum-Head-Change  Column Row Layer    Maximum-Flux-Residual          L2-NORM 
          0                 1           2             5    6     1       0.7224543766E-01       5    6    1         0.3897499555E+01      0.9826829581E+01
          0                 2           2             5    7     1      -0.2109784488E-01       5    6    1        -0.1162686391E+01      0.2836235742E+01
          0                 3           2             4    7     1      -0.4325976278E-02       4    7    1        -0.2321788341E+00      0.5646325338E+00
          0                 4           2             4    7     1       0.3019783915E-02       4    7    1         0.1665853301E+00      0.4077040730E+00
          0                 5           2             4    7     1      -0.1201885744E-03       4    7    1        -0.6815186394E-02      0.1668321955E-01
          0                 6           1             4    7     1       0.1483077170E-05       4    7    1         0.8643620913E-04      0.2117160785E-03

    ------------------------------------------------
       NWT REQUIRED            6 OUTER ITERATIONS 
       AND A TOTAL OF         11 INNER ITERATIONS.
    ------------------------------------------------

 NO OUTPUT CONTROL FOR STRESS PERIOD   46   TIME STEP    4
 
 SOLVING FOR HEAD 
                                                   Max.-Head-Change                         Max.-Flux-Residual
  Residual-Control   Outer-Iter.   Inner-Iter.     Column Row Layer    Maximum-Head-Change  Column Row Layer    Maximum-Flux-Residual          L2-NORM 
          0                 1           2             5    6     1       0.7012254033E-01       5    6    1         0.3780661083E+01      0.9602065214E+01
          0                 2           2             5    7     1      -0.2403816365E-01       5    6    1        -0.1316270350E+01      0.3220077081E+01
          0                 3           2             4    7     1      -0.1531561020E+00       4    7    1        -0.8218850566E+01      0.2012801958E+02
          0                 4           2             4    7     1       0.1043071909E-01       4    7    1         0.5754035367E+00      0.1409330369E+01
          0                 5           2             4    7     1      -0.4151471229E-03       5    8    1        -0.2354155129E-01      0.5766549609E-01
          0                 6           1             4    7     1       0.5122743417E-05       5    8    1         0.2986222785E-03      0.7314980041E-03

    ------------------------------------------------
       NWT REQUIRED            6 OUTER ITERATIONS 
       AND A TOTAL OF         11 INNER ITERATIONS.
    ------------------------------------------------

 NO OUTPUT CONTROL FOR STRESS PERIOD   46   TIME STEP    5
 
 SOLVING FOR HEAD 
                                                   Max.-Head-Change                         Max.-Flux-Residual
  Residual-Control   Outer-Iter.   Inner-Iter.     Column Row Layer    Maximum-Head-Change  Column Row Layer    Maximum-Flux-Residual          L2-NORM 
          0                 1           2             5    6     1       0.7234105208E-01       5    8    1         0.3902519397E+01      0.9839083784E+01
          0                 2           2             5    6     1      -0.7036748544E-02       5    8    1        -0.3902477354E+00      0.9838851184E+00
          0                 3           2             5    6     1       0.4791771086E-03       5    8    1         0.2731739316E-01      0.6887101101E-01
          0                 4           1             5    6     1      -0.1906686398E-04       5    8    1        -0.1117282764E-02      0.2816758272E-02

    ------------------------------------------------
       NWT REQUIRED            4 OUTER ITERATIONS 
       AND A TOTAL OF          7 INNER ITERATIONS.
    ------------------------------------------------

 NO OUTPUT CONTROL FOR STRESS PERIOD   46   TIME STEP    6
 
 SOLVING FOR HEAD 
                                                   Max.-Head-Change                         Max.-Flux-Residual
  Residual-Control   Outer-Iter.   Inner-Iter.     Column Row Layer    Maximum-Head-Change  Column Row Layer    Maximum-Flux-Residual          L2-NORM 
          0                 1           2             5    6     1       0.6974687601E-01       5    6    1         0.3759596252E+01      0.9564689093E+01
          0                 2           2             5    6     1      -0.6784410739E-02       5    6    1        -0.3759555770E+00      0.9564485907E+00
          0                 3           2             5    6     1       0.4619937929E-03       5    6    1         0.2631694016E-01      0.6695054768E-01
          0                 4           1             5    6     1      -0.1838312473E-04       5    6    1        -0.1076364178E-02      0.2738215922E-02

    ------------------------------------------------
       NWT REQUIRED            4 OUTER ITERATIONS 
       AND A TOTAL OF          7 INNER ITERATIONS.
    ------------------------------------------------

 NO OUTPUT CONTROL FOR STRESS PERIOD   46   TIME STEP    7
 
 SOLVING FOR HEAD 
                                                   Max.-Head-Change                         Max.-Flux-Residual
  Residual-Control   Outer-Iter.   Inner-Iter.     Column Row Layer    Maximum-Head-Change  Column Row Layer    Maximum-Flux-Residual          L2-NORM 
          0                 1           2             5    7     1       0.6773123426E-01       5    6    1         0.3624781839E+01      0.9304430472E+01
          0                 2           2             5    7     1      -0.6588378379E-02       5    6    1        -0.3624744384E+00      0.9304253368E+00
          0                 3           2             5    7     1       0.4486443777E-03       5    6    1         0.2537325720E-01      0.6512904276E-01
          0                 4           1             5    7     1      -0.1785198366E-04       5    6    1        -0.1037767495E-02      0.2663730754E-02

    ------------------------------------------------
       NWT REQUIRED            4 OUTER ITERATIONS 
       AND A TOTAL OF          7 INNER ITERATIONS.
    ------------------------------------------------

 NO OUTPUT CONTROL FOR STRESS PERIOD   46   TIME STEP    8
 
 SOLVING FOR HEAD 
                                                   Max.-Head-Change                         Max.-Flux-Residual
  Residual-Control   Outer-Iter.   Inner-Iter.     Column Row Layer    Maximum-Head-Change  Column Row Layer    Maximum-Flux-Residual          L2-NORM 
          0                 1           2             5    7     1       0.6641647202E-01       5    7    1         0.3520003643E+01      0.9057291038E+01
          0                 2           2             5    7     1      -0.9181157465E-02       5    7    1        -0.4995007674E+00      0.1251779784E+01
          0                 3           2             4    7     1       0.2540570800E-02       5    7    1         0.1409960026E+00      0.3452541352E+00
          0                 4           2             4    7     1       0.3683981966E-03       4    7    1         0.2032118932E-01      0.4984924936E-01
          0                 5           1             4    7     1       0.8614387661E-04       5    7    1         0.4753113582E-02      0.1184628550E-01

    ------------------------------------------------
       NWT REQUIRED            5 OUTER ITERATIONS 
       AND A TOTAL OF          9 INNER ITERATIONS.
    ------------------------------------------------

 NO OUTPUT CONTROL FOR STRESS PERIOD   46   TIME STEP    9
 
 SOLVING FOR HEAD 
                                                   Max.-Head-Change                         Max.-Flux-Residual
  Residual-Control   Outer-Iter.   Inner-Iter.     Column Row Layer    Maximum-Head-Change  Column Row Layer    Maximum-Flux-Residual          L2-NORM 
          0                 1           2             5    7     1       0.6512784769E-01       5    7    1         0.3451810111E+01      0.8822884933E+01
          0                 2           2             4    7     1      -0.3714945849E-01       5    7    1        -0.2000953986E+01      0.4900351132E+01
          0                 3           2             4    7     1       0.1906803523E-01       5    7    1         0.1052381531E+01      0.2576830124E+01
          0                 4           2             4    7     1      -0.7587370385E-03       5    7    1        -0.4303894634E-01      0.1053796159E+00
          0                 5           1             4    7     1       0.9355553355E-05       4    7    1         0.5452324508E-03      0.1335718050E-02

    ------------------------------------------------
       NWT REQUIRED            5 OUTER ITERATIONS 
       AND A TOTAL OF          9 INNER ITERATIONS.
    ------------------------------------------------

 NO OUTPUT CONTROL FOR STRESS PERIOD   46   TIME STEP   10
 
 SOLVING FOR HEAD 
                                                   Max.-Head-Change                         Max.-Flux-Residual
  Residual-Control   Outer-Iter.   Inner-Iter.     Column Row Layer    Maximum-Head-Change  Column Row Layer    Maximum-Flux-Residual          L2-NORM 
          0                 1           2             4    7     1       0.6435133513E-01       5    7    1         0.3395510599E+01      0.8638073006E+01
          0                 2           2             4    7     1      -0.2260733106E-01       5    7    1        -0.1216826065E+01      0.2985529978E+01
          0                 3           2             4    7     1       0.6517230475E-03       5    7    1         0.3620608564E-01      0.8984627050E-01
          0                 4           2             4    7     1       0.8071289512E-03       5    8    1         0.4455346096E-01      0.1090891951E+00
          0                 5           1             4    7     1      -0.3212427154E-04       5    8    1        -0.1823430512E-02      0.4463996557E-02

    ------------------------------------------------
       NWT REQUIRED            5 OUTER ITERATIONS 
       AND A TOTAL OF          9 INNER ITERATIONS.
    ------------------------------------------------

 NO OUTPUT CONTROL FOR STRESS PERIOD   46   TIME STEP   11
 
 SOLVING FOR HEAD 
                                                   Max.-Head-Change                         Max.-Flux-Residual
  Residual-Control   Outer-Iter.   Inner-Iter.     Column Row Layer    Maximum-Head-Change  Column Row Layer    Maximum-Flux-Residual          L2-NORM 
          0                 1           2             4    7     1       0.6397801676E-01       4    7    1         0.3347593803E+01      0.8468668104E+01
          0                 2           2             4    7     1      -0.2329333421E-01       4    7    1        -0.1250797547E+01      0.3065174653E+01
          0                 3           2             4    7     1       0.1451003124E-02       4    7    1         0.8009843532E-01      0.1962541619E+00
          0                 4           1             4    7     1       0.7175955121E-04       5    8    1         0.4007374703E-02      0.9797716004E-02

    ------------------------------------------------
       NWT REQUIRED            4 OUTER ITERATIONS 
       AND A TOTAL OF          7 INNER ITERATIONS.
    ------------------------------------------------

 NO OUTPUT CONTROL FOR STRESS PERIOD   46   TIME STEP   12
 
 SOLVING FOR HEAD 
                                                   Max.-Head-Change                         Max.-Flux-Residual
  Residual-Control   Outer-Iter.   Inner-Iter.     Column Row Layer    Maximum-Head-Change  Column Row Layer    Maximum-Flux-Residual          L2-NORM 
          0                 1           2             4    7     1       0.6358605254E-01       4    7    1         0.3328370294E+01      0.8308581906E+01
          0                 2           2             4    7     1      -0.2357364015E-01       4    7    1        -0.1265963741E+01      0.3092339317E+01
          0                 3           2             4    7     1      -0.1531745517E+00       5    8    1        -0.8221433978E+01      0.2013629055E+02
          0                 4           2             4    7     1       0.1043197619E-01       5    8    1         0.5756905515E+00      0.1409908120E+01
          0                 5           2             4    7     1      -0.4151971538E-03       5    8    1        -0.2355591556E-01      0.5768896588E-01
          0                 6           1             4    7     1       0.5123360736E-05       5    8    1         0.2988033166E-03      0.7317923778E-03

    ------------------------------------------------
       NWT REQUIRED            6 OUTER ITERATIONS 
       AND A TOTAL OF         11 INNER ITERATIONS.
    ------------------------------------------------

 NO OUTPUT CONTROL FOR STRESS PERIOD   46   TIME STEP   13
 
 SOLVING FOR HEAD 
                                                   Max.-Head-Change                         Max.-Flux-Residual
  Residual-Control   Outer-Iter.   Inner-Iter.     Column Row Layer    Maximum-Head-Change  Column Row Layer    Maximum-Flux-Residual          L2-NORM 
          0                 1           2             4    7     1       0.6398732072E-01       5    7    1         0.3361561094E+01      0.8581219363E+01
          0                 2           2             4    7     1      -0.6224226704E-02       5    7    1        -0.3361555708E+00      0.8581073381E+00
          0                 3           2             4    7     1       0.4238467147E-03       5    7    1         0.2353090531E-01      0.6006673435E-01
          0                 4           1             4    7     1      -0.1686525781E-04       5    7    1        -0.9624153440E-03      0.2456673419E-02

    ------------------------------------------------
       NWT REQUIRED            4 OUTER ITERATIONS 
       AND A TOTAL OF          7 INNER ITERATIONS.
    ------------------------------------------------

 NO OUTPUT CONTROL FOR STRESS PERIOD   46   TIME STEP   14
 
 SOLVING FOR HEAD 
                                                   Max.-Head-Change                         Max.-Flux-Residual
  Residual-Control   Outer-Iter.   Inner-Iter.     Column Row Layer    Maximum-Head-Change  Column Row Layer    Maximum-Flux-Residual          L2-NORM 
          0                 1           2             4    7     1       0.6352976849E-01       4    7    1         0.3324583376E+01      0.8368699672E+01
          0                 2           2             4    7     1      -0.6179724506E-02       4    7    1        -0.3324590913E+00      0.8368574073E+00
          0                 3           2             4    7     1       0.4208162292E-03       4    7    1         0.2327213940E-01      0.5857935768E-01
          0                 4           1             4    7     1      -0.1674467167E-04       4    7    1        -0.9518318561E-03      0.2395857586E-02

    ------------------------------------------------
       NWT REQUIRED            4 OUTER ITERATIONS 
       AND A TOTAL OF          7 INNER ITERATIONS.
    ------------------------------------------------

 NO OUTPUT CONTROL FOR STRESS PERIOD   46   TIME STEP   15
 
 SOLVING FOR HEAD 
                                                   Max.-Head-Change                         Max.-Flux-Residual
  Residual-Control   Outer-Iter.   Inner-Iter.     Column Row Layer    Maximum-Head-Change  Column Row Layer    Maximum-Flux-Residual          L2-NORM 
          0                 1           2             4    7     1       0.6304434872E-01       4    7    1         0.3300809714E+01      0.8166141769E+01
          0                 2           2             4    7     1      -0.6132510986E-02       4    7    1        -0.3300820305E+00      0.8166033914E+00
          0                 3           2             4    7     1       0.4176011189E-03       4    7    1         0.2310574220E-01      0.5716165776E-01
          0                 4           1             4    7     1      -0.1661673957E-04       4    7    1        -0.9450262155E-03      0.2337885653E-02

    ------------------------------------------------
       NWT REQUIRED            4 OUTER ITERATIONS 
       AND A TOTAL OF          7 INNER ITERATIONS.
    ------------------------------------------------

 NO OUTPUT CONTROL FOR STRESS PERIOD   46   TIME STEP   16
 
 SOLVING FOR HEAD 
                                                   Max.-Head-Change                         Max.-Flux-Residual
  Residual-Control   Outer-Iter.   Inner-Iter.     Column Row Layer    Maximum-Head-Change  Column Row Layer    Maximum-Flux-Residual          L2-NORM 
          0                 1           2             4    7     1       0.6253372545E-01       4    7    1         0.3275591149E+01      0.7972863554E+01
          0                 2           2             4    7     1      -0.7223300677E-02       4    7    1        -0.3887613732E+00      0.9410111944E+00
          0                 3           2             4    7     1       0.7518243758E-03       4    7    1         0.4155283337E-01      0.1006300203E+00
          0                 4           2             4    7     1      -0.1658879418E-02       4    7    1        -0.9406412269E-01      0.2327144578E+00
          0                 5           2             4    7     1       0.2098946154E-02       4    7    1         0.1223205268E+00      0.2996279557E+00
          0                 6           1             4   13     1      -0.4279336409E-04       4   13    1        -0.2515980241E-02      0.6894883869E-02

    ------------------------------------------------
       NWT REQUIRED            6 OUTER ITERATIONS 
       AND A TOTAL OF         11 INNER ITERATIONS.
    ------------------------------------------------

 NO OUTPUT CONTROL FOR STRESS PERIOD   46   TIME STEP   17
 
 SOLVING FOR HEAD 
                                                   Max.-Head-Change                         Max.-Flux-Residual
  Residual-Control   Outer-Iter.   Inner-Iter.     Column Row Layer    Maximum-Head-Change  Column Row Layer    Maximum-Flux-Residual          L2-NORM 
          0                 1           2             4    7     1       0.6200214850E-01       4    7    1         0.3249148442E+01      0.7789164822E+01
          0                 2           2             4    7     1      -0.3560322922E-01       4    7    1        -0.1911861696E+01      0.4639497475E+01
          0                 3           2             4    7     1       0.1884814573E-01       4    7    1         0.1039824607E+01      0.2543250523E+01
          0                 4           2             4    7     1      -0.7499874320E-03       4    7    1        -0.4252881781E-01      0.1040058566E+00
          0                 5           1             4    7     1       0.9247666938E-05       4    7    1         0.5389576258E-03      0.1318780716E-02

    ------------------------------------------------
       NWT REQUIRED            5 OUTER ITERATIONS 
       AND A TOTAL OF          9 INNER ITERATIONS.
    ------------------------------------------------

 NO OUTPUT CONTROL FOR STRESS PERIOD   46   TIME STEP   18
 
 SOLVING FOR HEAD 
                                                   Max.-Head-Change                         Max.-Flux-Residual
  Residual-Control   Outer-Iter.   Inner-Iter.     Column Row Layer    Maximum-Head-Change  Column Row Layer    Maximum-Flux-Residual          L2-NORM 
          0                 1           2             4    7     1       0.6151493006E-01       4    7    1         0.3224612522E+01      0.7646231175E+01
          0                 2           2             4    7     1      -0.2349958989E-01       4    7    1        -0.1262426789E+01      0.3048060237E+01
          0                 3           2             4    7     1      -0.1531831658E+00       5    8    1        -0.8223374642E+01      0.2013966478E+02
          0                 4           2             4    7     1       0.1043256310E-01       5    8    1         0.5758253710E+00      0.1410143658E+01
          0                 5           2             4    7     1      -0.4152205119E-03       5    8    1        -0.2356138941E-01      0.5769851924E-01
          0                 6           1             4    7     1       0.5123649065E-05       5    8    1         0.2988722185E-03      0.7319119927E-03

    ------------------------------------------------
       NWT REQUIRED            6 OUTER ITERATIONS 
       AND A TOTAL OF         11 INNER ITERATIONS.
    ------------------------------------------------

 NO OUTPUT CONTROL FOR STRESS PERIOD   46   TIME STEP   19
 
 SOLVING FOR HEAD 
                                                   Max.-Head-Change                         Max.-Flux-Residual
  Residual-Control   Outer-Iter.   Inner-Iter.     Column Row Layer    Maximum-Head-Change  Column Row Layer    Maximum-Flux-Residual          L2-NORM 
          0                 1           2             4    7     1       0.6185135943E-01       4    7    1         0.3239193745E+01      0.7932012082E+01
          0                 2           2             4    7     1      -0.6016468642E-02       4    7    1        -0.3239206306E+00      0.7931913276E+00
          0                 3           2             4    7     1       0.4096990359E-03       4    7    1         0.2267444214E-01      0.5552281435E-01
          0                 4           1             4    7     1      -0.1630230825E-04       4    7    1        -0.9273860178E-03      0.2270867193E-02

    ------------------------------------------------
       NWT REQUIRED            4 OUTER ITERATIONS 
       AND A TOTAL OF          7 INNER ITERATIONS.
    ------------------------------------------------

 NO OUTPUT CONTROL FOR STRESS PERIOD   46   TIME STEP   20
 
 SOLVING FOR HEAD 
                                                   Max.-Head-Change                         Max.-Flux-Residual
  Residual-Control   Outer-Iter.   Inner-Iter.     Column Row Layer    Maximum-Head-Change  Column Row Layer    Maximum-Flux-Residual          L2-NORM 
          0                 1           2             4    7     1       0.6133615986E-01       4    7    1         0.3213606074E+01      0.7747948423E+01
          0                 2           2             4    7     1      -0.5966357332E-02       4    7    1        -0.3213621002E+00      0.7747864234E+00
          0                 3           2             4    7     1       0.4062866072E-03       4    7    1         0.2249534270E-01      0.5423454710E-01
          0                 4           1             4    7     1      -0.1616652526E-04       4    7    1        -0.9200608783E-03      0.2218165234E-02

    ------------------------------------------------
       NWT REQUIRED            4 OUTER ITERATIONS 
       AND A TOTAL OF          7 INNER ITERATIONS.
    ------------------------------------------------

 NO OUTPUT CONTROL FOR STRESS PERIOD   46   TIME STEP   21
 
 SOLVING FOR HEAD 
                                                   Max.-Head-Change                         Max.-Flux-Residual
  Residual-Control   Outer-Iter.   Inner-Iter.     Column Row Layer    Maximum-Head-Change  Column Row Layer    Maximum-Flux-Residual          L2-NORM 
          0                 1           2             4    7     1       0.6080058350E-01       4    7    1         0.3186843439E+01      0.7572091952E+01
          0                 2           2             4    7     1      -0.5914263495E-02       4    7    1        -0.3186860455E+00      0.7572020883E+00
          0                 3           2             4    7     1       0.4027391789E-03       4    7    1         0.2230801681E-01      0.5300371958E-01
          0                 4           1             4    7     1      -0.1602536950E-04       4    7    1        -0.9123992254E-03      0.2167819222E-02

    ------------------------------------------------
       NWT REQUIRED            4 OUTER ITERATIONS 
       AND A TOTAL OF          7 INNER ITERATIONS.
    ------------------------------------------------

 NO OUTPUT CONTROL FOR STRESS PERIOD   46   TIME STEP   22
 
 SOLVING FOR HEAD 
                                                   Max.-Head-Change                         Max.-Flux-Residual
  Residual-Control   Outer-Iter.   Inner-Iter.     Column Row Layer    Maximum-Head-Change  Column Row Layer    Maximum-Flux-Residual          L2-NORM 
          0                 1           2             4    7     1       0.6024664871E-01       4    7    1         0.3159017052E+01      0.7403893501E+01
          0                 2           2             4    7     1      -0.6775262130E-02       4    7    1        -0.3649993590E+00      0.8560247025E+00
          0                 3           2             4    7     1       0.5910167229E-03       4    7    1         0.3270177386E-01      0.7748698239E-01
          0                 4           2             4    7     1       0.4229867111E-03       5    8    1         0.2346674507E-01      0.5745825656E-01
          0                 5           1             4   13     1      -0.3373282887E-04       4   13    1        -0.1983550978E-02      0.5622870503E-02

    ------------------------------------------------
       NWT REQUIRED            5 OUTER ITERATIONS 
       AND A TOTAL OF          9 INNER ITERATIONS.
    ------------------------------------------------

 NO OUTPUT CONTROL FOR STRESS PERIOD   46   TIME STEP   23
 
 SOLVING FOR HEAD 
                                                   Max.-Head-Change                         Max.-Flux-Residual
  Residual-Control   Outer-Iter.   Inner-Iter.     Column Row Layer    Maximum-Head-Change  Column Row Layer    Maximum-Flux-Residual          L2-NORM 
          0                 1           2             4    7     1       0.5967767407E-01       4    7    1         0.3130299196E+01      0.7243540725E+01
          0                 2           2             4    7     1      -0.3836365519E-01       4    7    1        -0.2060248773E+01      0.4981028171E+01
          0                 3           2             4    7     1       0.1904566029E-01       4    7    1         0.1050739810E+01      0.2568586676E+01
          0                 4           2             4    7     1      -0.7578467848E-03       4    7    1        -0.4297510809E-01      0.1050420089E+00
          0                 5           1             4    7     1       0.9344576126E-05       4    7    1         0.5446035693E-03      0.1332216192E-02

    ------------------------------------------------
       NWT REQUIRED            5 OUTER ITERATIONS 
       AND A TOTAL OF          9 INNER ITERATIONS.
    ------------------------------------------------

 NO OUTPUT CONTROL FOR STRESS PERIOD   46   TIME STEP   24
 
 SOLVING FOR HEAD 
                                                   Max.-Head-Change                         Max.-Flux-Residual
  Residual-Control   Outer-Iter.   Inner-Iter.     Column Row Layer    Maximum-Head-Change  Column Row Layer    Maximum-Flux-Residual          L2-NORM 
          0                 1           2             4    7     1       0.5917509949E-01       4    7    1         0.3104588338E+01      0.7129252276E+01
          0                 2           2             4    7     1      -0.2021096851E-01       4    7    1        -0.1086160687E+01      0.2597020029E+01
          0                 3           2             5    8     1      -0.1792571955E-02       5    8    1        -0.9867998431E-01      0.2392155189E+00
          0                 4           2             4    7     1       0.2795531405E-02       5    8    1         0.1544819371E+00      0.3781195261E+00
          0                 5           2             4    7     1      -0.1112632324E-03       5    8    1        -0.6321871798E-02      0.1547249422E-01
          0                 6           1             4    7     1       0.1372942604E-05       5    8    1         0.8020229825E-04      0.1963031899E-03

    ------------------------------------------------
       NWT REQUIRED            6 OUTER ITERATIONS 
       AND A TOTAL OF         11 INNER ITERATIONS.
    ------------------------------------------------

 NO OUTPUT CONTROL FOR STRESS PERIOD   46   TIME STEP   25
 
 SOLVING FOR HEAD 
                                                   Max.-Head-Change                         Max.-Flux-Residual
  Residual-Control   Outer-Iter.   Inner-Iter.     Column Row Layer    Maximum-Head-Change  Column Row Layer    Maximum-Flux-Residual          L2-NORM 
          0                 1           2             4    7     1       0.5866188779E-01       4    7    1         0.3078279091E+01      0.7017155270E+01
          0                 2           2             4    7     1      -0.2192663678E-01       4    7    1        -0.1178278514E+01      0.2818909012E+01
          0                 3           2             4    7     1       0.4676367786E-03       4    7    1         0.2590955898E-01      0.5944655776E-01
          0                 4           2             4    7     1       0.9384158753E-03       5    8    1         0.5192975517E-01      0.1270304670E+00
          0                 5           1             4    7     1      -0.3734957954E-04       5    8    1        -0.2125196131E-02      0.5198107532E-02

    ------------------------------------------------
       NWT REQUIRED            5 OUTER ITERATIONS 
       AND A TOTAL OF          9 INNER ITERATIONS.
    ------------------------------------------------

 NO OUTPUT CONTROL FOR STRESS PERIOD   46   TIME STEP   26
 
 SOLVING FOR HEAD 
                                                   Max.-Head-Change                         Max.-Flux-Residual
  Residual-Control   Outer-Iter.   Inner-Iter.     Column Row Layer    Maximum-Head-Change  Column Row Layer    Maximum-Flux-Residual          L2-NORM 
          0                 1           2             4    7     1       0.5815051444E-01       4    7    1         0.3051974051E+01      0.6912632533E+01
          0                 2           2             4    7     1      -0.2267026404E-01       4    7    1        -0.1218223847E+01      0.2913550335E+01
          0                 3           2             4    7     1       0.1351869581E-02       4    7    1         0.7469016325E-01      0.1779317405E+00
          0                 4           2             4    8     1       0.1305035331E-03       5    8    1         0.7364839927E-02      0.1787914452E-01
          0                 5           1             4    8     1      -0.5194120091E-05       5    8    1        -0.3014567897E-03      0.7311106525E-03

    ------------------------------------------------
       NWT REQUIRED            5 OUTER ITERATIONS 
       AND A TOTAL OF          9 INNER ITERATIONS.
    ------------------------------------------------

 NO OUTPUT CONTROL FOR STRESS PERIOD   46   TIME STEP   27
 
 SOLVING FOR HEAD 
                                                   Max.-Head-Change                         Max.-Flux-Residual
  Residual-Control   Outer-Iter.   Inner-Iter.     Column Row Layer    Maximum-Head-Change  Column Row Layer    Maximum-Flux-Residual          L2-NORM 
          0                 1           2             4    7     1       0.5763876520E-01       4    7    1         0.3025579104E+01      0.6813588268E+01
          0                 2           2             4    7     1      -0.2297028495E-01       4    7    1        -0.1234356585E+01      0.2950109476E+01
          0                 3           2             4    7     1      -0.1532171327E+00       5    8    1        -0.8226403825E+01      0.2014605314E+02
          0                 4           2             4    7     1       0.1043487663E-01       5    8    1         0.5760363014E+00      0.1410590079E+01
          0                 5           2             4    7     1      -0.4153125906E-03       5    8    1        -0.2356997305E-01      0.5771668815E-01
          0                 6           1             4    7     1       0.5124785242E-05       5    8    1         0.2989805412E-03      0.7321404558E-03

    ------------------------------------------------
       NWT REQUIRED            6 OUTER ITERATIONS 
       AND A TOTAL OF         11 INNER ITERATIONS.
    ------------------------------------------------

 NO OUTPUT CONTROL FOR STRESS PERIOD   46   TIME STEP   28
 
 SOLVING FOR HEAD 
                                                   Max.-Head-Change                         Max.-Flux-Residual
  Residual-Control   Outer-Iter.   Inner-Iter.     Column Row Layer    Maximum-Head-Change  Column Row Layer    Maximum-Flux-Residual          L2-NORM 
          0                 1           2             4    7     1       0.5793816245E-01       4    7    1         0.3037792990E+01      0.7110127531E+01
          0                 2           2             4    7     1      -0.5635830247E-02       4    7    1        -0.3037811463E+00      0.7110042913E+00
          0                 3           2             4    7     1       0.3837788850E-03       4    7    1         0.2126467204E-01      0.4976967044E-01
          0                 4           1             4    7     1      -0.1527092199E-04       4    7    1        -0.8697263752E-03      0.2035560618E-02

    ------------------------------------------------
       NWT REQUIRED            4 OUTER ITERATIONS 
       AND A TOTAL OF          7 INNER ITERATIONS.
    ------------------------------------------------

 NO OUTPUT CONTROL FOR STRESS PERIOD   46   TIME STEP   29
 
 SOLVING FOR HEAD 
                                                   Max.-Head-Change                         Max.-Flux-Residual
  Residual-Control   Outer-Iter.   Inner-Iter.     Column Row Layer    Maximum-Head-Change  Column Row Layer    Maximum-Flux-Residual          L2-NORM 
          0                 1           2             4    7     1       0.5739411691E-01       4    7    1         0.3010293803E+01      0.6958184347E+01
          0                 2           2             4    7     1      -0.5582911521E-02       4    7    1        -0.3010313649E+00      0.6958113551E+00
          0                 3           2             4    7     1       0.3801752959E-03       4    7    1         0.2107218596E-01      0.4870627121E-01
          0                 4           1             4    7     1      -0.1512753206E-04       4    7    1        -0.8618537031E-03      0.1992077749E-02

    ------------------------------------------------
       NWT REQUIRED            4 OUTER ITERATIONS 
       AND A TOTAL OF          7 INNER ITERATIONS.
    ------------------------------------------------

 NO OUTPUT CONTROL FOR STRESS PERIOD   46   TIME STEP   30



 STREAM LISTING     PERIOD     46   STEP       30

 LAYER ROW COL. STREAM  RCH.  FLOW INTO     FLOW TO   FLOW OUT OF   OVRLND.     DIRECT     STREAM       STREAM     STREAM     STREAM   STREAMBED  STREAMBED
                SEG.NO.  NO.  STRM. RCH.    AQUIFER    STRM. RCH.    RUNOFF     PRECIP       ET          HEAD       DEPTH      WIDTH   CONDCTNC.   GRADIENT

   1    1    1     1     1    9.3747E+00  1.4265E-01   9.2321E+00  0.000E+00  0.000E+00  0.000E+00  1.09393E+03  8.788E-01  8.172E+00  3.678E-02  1.293E+00
   1    2    2     1     2    9.2321E+00  2.1921E-01   9.0129E+00  0.000E+00  0.000E+00  0.000E+00  1.08893E+03  8.731E-01  8.085E+00  5.660E-02  1.291E+00
   1    3    3     1     3    9.0129E+00  1.8531E-01   8.8275E+00  0.000E+00  0.000E+00  0.000E+00  1.08329E+03  8.667E-01  7.987E+00  4.792E-02  1.289E+00
   1    3    4     1     4    8.8275E+00  1.6930E-01   8.6583E+00  0.000E+00  0.000E+00  0.000E+00  1.07827E+03  8.609E-01  7.901E+00  4.385E-02  1.287E+00
   1    4    5     2     1    6.6583E+00  2.7605E-01   6.3822E+00  0.000E+00  0.000E+00  0.000E+00  1.07247E+03  5.391E-01  1.200E+01  7.800E-02  1.180E+00
   1    5    6     2     2    6.3822E+00  2.1162E-01   6.1706E+00  0.000E+00  0.000E+00  0.000E+00  1.06704E+03  5.270E-01  1.200E+01  6.000E-02  1.176E+00
   1    6    6     2     3    6.1706E+00  2.1097E-01   5.9596E+00  0.000E+00  0.000E+00  0.000E+00  1.06231E+03  5.162E-01  1.200E+01  6.000E-02  1.172E+00
   1    7    6     2     4    5.9596E+00  2.1032E-01   5.7493E+00  0.000E+00  0.000E+00  0.000E+00  1.05758E+03  5.054E-01  1.200E+01  6.000E-02  1.168E+00
   1    8    6     2     5    5.7493E+00  2.0967E-01   5.5396E+00  0.000E+00  0.000E+00  0.000E+00  1.05285E+03  4.944E-01  1.200E+01  6.000E-02  1.165E+00
   1    3    5     3     1    2.0000E+00  2.8252E-01   1.7175E+00  0.000E+00  0.000E+00  0.000E+00  1.07555E+03  1.909E+00  9.636E+00  7.227E-02  1.955E+00
   1    3    6     3     2    1.7175E+00  2.4905E-01   1.4684E+00  0.000E+00  0.000E+00  0.000E+00  1.07264E+03  1.727E+00  8.909E+00  6.682E-02  1.864E+00
   1    3    7     3     3    1.4684E+00  1.9718E-01   1.2712E+00  0.000E+00  0.000E+00  0.000E+00  1.06987E+03  1.555E+00  8.218E+00  5.547E-02  1.777E+00
   1    4    8     3     4    1.2712E+00  2.2567E-01   1.0456E+00  0.000E+00  0.000E+00  0.000E+00  1.06682E+03  1.364E+00  7.455E+00  6.709E-02  1.682E+00
   1    5    8     3     5    1.0456E+00  1.5790E-01   8.8768E-01  0.000E+00  0.000E+00  0.000E+00  1.06362E+03  1.164E+00  6.655E+00  4.991E-02  1.582E+00
   1    6    8     3     6    8.8768E-01  5.5980E-02   8.3170E-01  0.000E+00  0.000E+00  0.000E+00  1.06158E+03  1.036E+00  6.145E+00  1.844E-02  1.518E+00
   1    5   10     4     1    1.0000E+01  9.0919E-02   9.9091E+00  0.000E+00  0.000E+00  0.000E+00  1.07836E+03  6.368E-01  1.000E+01  2.500E-02  1.212E+00
   1    5    9     4     2    9.9091E+00  1.8158E-01   9.7275E+00  0.000E+00  0.000E+00  0.000E+00  1.07154E+03  6.315E-01  1.000E+01  5.000E-02  1.211E+00
   1    6    8     4     3    9.7275E+00  1.2689E-01   9.6006E+00  0.000E+00  0.000E+00  0.000E+00  1.06381E+03  6.256E-01  1.000E+01  3.500E-02  1.209E+00
   1    6    8     5     1    1.0432E+01  2.2686E-01   1.0205E+01  0.000E+00  0.000E+00  0.000E+00  1.05868E+03  6.790E-01  1.542E+01  6.166E-02  1.226E+00
   1    7    7     5     2    1.0205E+01  2.7894E-01   9.9265E+00  0.000E+00  0.000E+00  0.000E+00  1.05417E+03  6.732E-01  1.519E+01  7.594E-02  1.224E+00
   1    8    7     5     3    9.9265E+00  1.9221E-01   9.7343E+00  0.000E+00  0.000E+00  0.000E+00  1.04992E+03  6.676E-01  1.497E+01  5.241E-02  1.223E+00
   1    8    6     5     4    9.7343E+00  1.3577E-01   9.5985E+00  0.000E+00  0.000E+00  0.000E+00  1.04691E+03  6.637E-01  1.482E+01  3.706E-02  1.221E+00
   1    9    6     6     1    1.5138E+01  2.3397E-01   1.4904E+01  0.000E+00  0.000E+00  0.000E+00  1.04363E+03  8.995E-01  1.200E+01  6.000E-02  1.300E+00
   1   10    7     6     2    1.4904E+01  2.3346E-01   1.4671E+01  0.000E+00  0.000E+00  0.000E+00  1.03907E+03  8.911E-01  1.200E+01  6.000E-02  1.297E+00
   1   11    7     6     3    1.4671E+01  2.3296E-01   1.4438E+01  0.000E+00  0.000E+00  0.000E+00  1.03452E+03  8.826E-01  1.200E+01  6.000E-02  1.294E+00
   1   12    7     6     4    1.4438E+01  2.3245E-01   1.4205E+01  0.000E+00  0.000E+00  0.000E+00  1.02997E+03  8.741E-01  1.200E+01  6.000E-02  1.291E+00
   1   13    7     6     5    1.4205E+01  9.2830E-03   1.4196E+01  0.000E+00  0.000E+00  0.000E+00  1.02678E+03  8.697E-01  1.200E+01  2.400E-02  1.289E-01
   1   14    9     7     1    1.5000E+02  1.4098E+00   1.4859E+02  0.000E+00  0.000E+00  0.000E+00  1.03987E+03  2.288E+00  5.529E+01  5.593E-01  8.403E-01
   1   13    8     7     2    1.4859E+02  2.0606E+00   1.4653E+02  0.000E+00  0.000E+00  0.000E+00  1.03478E+03  2.278E+00  5.525E+01  6.147E-01  1.117E+00
   1   13    7     7     3    1.4653E+02  1.8398E+00   1.4469E+02  0.000E+00  0.000E+00  0.000E+00  1.02969E+03  2.268E+00  5.521E+01  5.583E-01  1.098E+00
   1   13    6     8     1    1.5889E+02  1.2130E+00   1.5767E+02  0.000E+00  0.000E+00  0.000E+00  1.02475E+03  2.874E+00  4.168E+01  4.247E-01  9.521E-01
   1   13    5     8     2    1.5767E+02  4.4788E-01   1.5722E+02  0.000E+00  0.000E+00  0.000E+00  1.01849E+03  2.869E+00  4.159E+01  4.238E-01  3.522E-01
   1   13    4     8     3    1.5722E+02 -1.4662E+00   1.5869E+02  0.000E+00  0.000E+00  0.000E+00  1.01225E+03  2.872E+00  4.164E+01  4.244E+00 -1.152E-01
   1   13    3     8     4    1.5869E+02 -3.1330E+00   1.6182E+02  0.000E+00  0.000E+00  0.000E+00  1.00601E+03  2.888E+00  4.187E+01  4.267E+00 -2.448E-01
   1   13    2     8     5    1.6182E+02 -2.3945E+00   1.6422E+02  0.000E+00  0.000E+00  0.000E+00  9.99781E+02  2.906E+00  4.214E+01  4.294E+00 -1.859E-01
   1   13    1     8     6    1.6422E+02 -1.9089E+00   1.6613E+02  0.000E+00  0.000E+00  0.000E+00  9.94795E+02  2.920E+00  4.235E+01  2.589E+00 -2.457E-01
   1    8    6     9     1    2.5495E-07  0.0000E+00   2.5495E-07  0.000E+00  0.000E+00  0.000E+00  1.07875E+03  6.298E-05  4.000E+00  0.000E+00  1.000E+00
   1    8    5     9     2    2.5495E-07  0.0000E+00   2.5495E-07  0.000E+00  0.000E+00  0.000E+00  1.07825E+03  6.298E-05  4.000E+00  0.000E+00  1.000E+00





UNSATURATED ZONE PACKAGE VOLUMETRIC BUDGET FOR  TIME STEP    30 STRESS PERIOD   46
  ------------------------------------------------------------------------------



     CUMULATIVE VOLUMES      L**3       RATES FOR THIS TIME STEP      L**3/T
     ------------------                 ------------------------

           IN:                                      IN:
           ---                                      ---
        INFILTRATION =  2184378287.1784          INFILTRATION =           0.8475

          OUT:                                     OUT:
          ----                                     ----
              UZF ET =  1699620152.7975                UZF ET =          12.0675
        UZF RECHARGE =    89935077.6917          UZF RECHARGE =       0.0000E+00

            IN - OUT =   394823056.6893              IN - OUT =         -11.2200

          STORAGE:                                 STORAGE:
          --------                                 --------
      STORAGE CHANGE =   394832874.9705        STORAGE CHANGE =         -11.2200

 PERCENT DISCREPANCY IS DIFFERENCE BETWEEN IN-OUT MINUS CHANGE IN STORAGE
 DIVIDED BY THE AVERAGE OF IN AND OUT TIMES 100

 PERCENT DISCREPANCY =          -0.00     PERCENT DISCREPANCY =           0.00






1
  VOLUMETRIC BUDGET FOR AGRICULTURAL FIELDS AT  END OF TIME STEP   30, STRESS PERIOD  46
  ------------------------------------------------------------------------------

     CUMULATIVE VOLUMES      L**3       RATES FOR THIS TIME STEP      L**3/T
     ------------------                 ------------------------

           IN:                                      IN:
           ---                                      ---
               AG WELLS  =  1373766144.0000                 AG WELLS  =       6.3737E-08
      DIVERSION SEGMENTS =   710480320.0000        DIVERSION SEGMENTS =       2.5495E-07
       IRRIGATION PONDS  =           0.0000         IRRIGATION PONDS  =           0.0000
           GW IRRIGATION =           0.0000             GW IRRIGATION =           0.0000
           SW IRRIGATION =           0.0000             SW IRRIGATION =           0.0000
        SYSTEM LOSSES GW =           0.0000          SYSTEM LOSSES GW =           0.0000
        SYSTEM LOSSES SW =           0.0000          SYSTEM LOSSES SW =           0.0000

                TOTAL IN =  2084246528.0000                  TOTAL IN =       3.1869E-07

          OUT:                                     OUT:
          ----                                     ----
               AG WELLS  =           0.0000                 AG WELLS  =           0.0000
      DIVERSION SEGMENTS =           0.0000        DIVERSION SEGMENTS =           0.0000
       IRRIGATION PONDS  =           0.0000         IRRIGATION PONDS  =           0.0000
           GW IRRIGATION =  1373766144.0000             GW IRRIGATION =       6.3737E-08
           SW IRRIGATION =   710494208.0000             SW IRRIGATION =       2.5495E-07
        SYSTEM LOSSES GW =           0.0000          SYSTEM LOSSES GW =           0.0000
        SYSTEM LOSSES SW =           0.0000          SYSTEM LOSSES SW =           0.0000

               TOTAL OUT =  2084260352.0000                 TOTAL OUT =       3.1869E-07

                IN - OUT =      -13824.0000                  IN - OUT =      -5.0875E-12

     PERCENT DISCREPANCY =          -0.00         PERCENT DISCREPANCY =          -0.00



1
  VOLUMETRIC BUDGET FOR ENTIRE MODEL AT END OF TIME STEP   30, STRESS PERIOD  46
  ------------------------------------------------------------------------------

     CUMULATIVE VOLUMES      L**3       RATES FOR THIS TIME STEP      L**3/T
     ------------------                 ------------------------

           IN:                                      IN:
           ---                                      ---
             STORAGE     =  2010600448.0000               STORAGE     =          12.9973
       CONSTANT HEAD     =           0.0000         CONSTANT HEAD     =           0.0000
     HEAD DEP BOUNDS     =    34221220.0000       HEAD DEP BOUNDS     =           0.2908
      STREAM LEAKAGE     =  1430194944.0000        STREAM LEAKAGE     =          12.1498
        UZF RECHARGE     =    89935088.0000          UZF RECHARGE     =           0.0000
               GW ET     =           0.0000                 GW ET     =           0.0000
     SURFACE LEAKAGE     =           0.0000       SURFACE LEAKAGE     =           0.0000
           AG WELLS      =           0.0000             AG WELLS      =           0.0000

                TOTAL IN =  3564951808.0000                  TOTAL IN =          25.4379

          OUT:                                     OUT:
          ----                                     ----
             STORAGE     =  1005714496.0000               STORAGE     =          16.2491
       CONSTANT HEAD     =           0.0000         CONSTANT HEAD     =           0.0000
     HEAD DEP BOUNDS     =    34076200.0000       HEAD DEP BOUNDS     =           0.2862
      STREAM LEAKAGE     =  1151359360.0000        STREAM LEAKAGE     =           8.9026
        UZF RECHARGE     =           0.0000          UZF RECHARGE     =           0.0000
               GW ET     =           0.0000                 GW ET     =           0.0000
     SURFACE LEAKAGE     =           0.0000       SURFACE LEAKAGE     =           0.0000
           AG WELLS      =  1373766144.0000             AG WELLS      =       6.3737E-08

               TOTAL OUT =  3564916224.0000                 TOTAL OUT =          25.4379

                IN - OUT =       35584.0000                  IN - OUT =       1.5259E-05

     PERCENT DISCREPANCY =           0.00         PERCENT DISCREPANCY =           0.00






         TIME SUMMARY AT END OF TIME STEP   30 IN STRESS PERIOD   46
                    SECONDS     MINUTES      HOURS       DAYS        YEARS
                    -----------------------------------------------------------
   TIME STEP LENGTH  87667.      1461.1      24.352      1.0147     2.77799E-03
 STRESS PERIOD TIME 2.63000E+06  43833.      730.56      30.440     8.33397E-02
         TOTAL TIME 1.18435E+08 1.97392E+06  32899.      1370.8      3.7530    
1
1
                            STRESS PERIOD NO.   47, LENGTH =   2630000.    
                            -----------------------------------------------

                              NUMBER OF TIME STEPS =    30

                               MULTIPLIER FOR DELT =     1.000

                            INITIAL TIME STEP SIZE =   87666.66    

 REUSING NON-PARAMETER GHB CELLS FROM LAST STRESS PERIOD

      2 GHB CELLS

 REUSING STREAM SEGMENT DATA FROM LAST STRESS PERIOD



            AREAL INFILTRATION RATE
 READING ON UNIT   19 WITH FORMAT: (FREE)              

            1           2           3           4           5           6           7           8           9          10
 ........................................................................................................................
   1   1.0000E-10  2.0000E-10   0.000       0.000       0.000       0.000       0.000       0.000       0.000       0.000    
   2   2.0000E-10  1.0000E-10  2.0000E-10   0.000       0.000      8.0000E-10  8.0000E-10  5.0000E-10   0.000       0.000    
   3    0.000      5.0000E-10  1.0000E-10  1.0000E-10  8.0000E-10  8.0000E-10  5.0000E-10  5.0000E-10   0.000       0.000    
   4   8.0000E-10  5.0000E-10  1.0000E-10  1.0000E-10  1.0000E-10  1.0000E-10  1.0000E-10  1.0000E-10  2.0000E-10   0.000    
   5   8.0000E-10  5.0000E-10  1.0000E-10  1.0000E-10  1.0000E-10  1.0000E-10  1.0000E-10  1.0000E-10  1.0000E-10  1.0000E-10
   6   8.0000E-10  5.0000E-10  5.0000E-10  2.0000E-10  2.0000E-10  1.0000E-10  1.0000E-10  1.0000E-10  1.0000E-10  5.0000E-10
   7   8.0000E-10  5.0000E-10  5.0000E-10  2.0000E-10  2.0000E-10  1.0000E-10  1.0000E-10  2.0000E-10  2.0000E-10   0.000    
   8    0.000      5.0000E-10  5.0000E-10  2.0000E-10  2.0000E-10  1.0000E-10  1.0000E-10  2.0000E-10  5.0000E-10   0.000    
   9    0.000      5.0000E-10  5.0000E-10  2.0000E-10  2.0000E-10  1.0000E-10  1.0000E-10  2.0000E-10  5.0000E-10   0.000    
  10    0.000      5.0000E-10  5.0000E-10  2.0000E-10  2.0000E-10  1.0000E-10  1.0000E-10  2.0000E-10  5.0000E-10  8.0000E-10
  11    0.000      1.0000E-10  1.0000E-10  1.0000E-10  1.0000E-10  1.0000E-10  1.0000E-10  2.0000E-10  5.0000E-10   0.000    
  12   1.0000E-10  1.0000E-10  1.0000E-10  1.0000E-10  1.0000E-10  1.0000E-10  1.0000E-10  1.0000E-10  2.0000E-10   0.000    
  13   1.0000E-10  1.0000E-10  2.0000E-10  2.0000E-10  2.0000E-10  2.0000E-10  2.0000E-10  1.0000E-10  1.0000E-10   0.000    
  14    0.000      2.0000E-10  5.0000E-10  5.0000E-10  5.0000E-10  5.0000E-10  5.0000E-10  2.0000E-10  1.0000E-10   0.000    
  15    0.000       0.000      8.0000E-10  8.0000E-10  8.0000E-10  8.0000E-10   0.000       0.000       0.000       0.000    

                  ET RATE =  5.000000E-09

 USING ET EXTINCTION DEPTH FROM PREVIOUS STRESS PERIOD. CURRENT PERIOD IS:      47

 USING EXTINCTION WATER CONTENT FROM PREVIOUS STRESS PERIOD. CURRENT PERIOD IS:      47

 USING AIR ENTRY PRESSURE FROM PREVIOUS STRESS PERIOD. CURRENT PERIOD IS:      47

 USING ROOT PRESSURE HEAD FROM PREVIOUS STRESS PERIOD. CURRENT PERIOD IS:      47

 USING ROOT ACTIVITY FROM PREVIOUS STRESS PERIOD. CURRENT PERIOD IS:      47

 PROCESSING AG STRESS PERIOD DATA

 READING AG STRESS PERIOD DATA

 READING IRRIGATION SEGMENT

 READING IRRIGATION WELL

 READING SUPPLEMENTAL WELL

 NO IRRPOND OR REUSING IRRPOND DATA FROM LAST STRESS PERIOD

 END PROCESSING AG STRESS PERIOD DATA OPTIONS
 
 SOLVING FOR HEAD 
                                                   Max.-Head-Change                         Max.-Flux-Residual
  Residual-Control   Outer-Iter.   Inner-Iter.     Column Row Layer    Maximum-Head-Change  Column Row Layer    Maximum-Flux-Residual          L2-NORM 
          0                 1           2             4    7     1       0.5683698544E-01       4    7    1         0.2982028227E+01      0.6812331412E+01
          0                 2           2             4    7     1      -0.5528719417E-02       4    7    1        -0.2982049158E+00      0.6812297194E+00
          0                 3           2             4    7     1       0.3764849970E-03       4    7    1         0.2087433333E-01      0.4768579114E-01
          0                 4           1             4    7     1      -0.1498069152E-04       4    7    1        -0.8537615131E-03      0.1950322726E-02

    ------------------------------------------------
       NWT REQUIRED            4 OUTER ITERATIONS 
       AND A TOTAL OF          7 INNER ITERATIONS.
    ------------------------------------------------

 NO OUTPUT CONTROL FOR STRESS PERIOD   47   TIME STEP    1
 
 SOLVING FOR HEAD 
                                                   Max.-Head-Change                         Max.-Flux-Residual
  Residual-Control   Outer-Iter.   Inner-Iter.     Column Row Layer    Maximum-Head-Change  Column Row Layer    Maximum-Flux-Residual          L2-NORM 
          0                 1           2             4    7     1       0.5626823448E-01       4    7    1         0.2953076913E+01      0.6673087564E+01
          0                 2           2             4    7     1      -0.5473396999E-02       4    7    1        -0.2953098867E+00      0.6673036381E+00
          0                 3           2             4    7     1       0.3727175424E-03       4    7    1         0.2067166985E-01      0.4671078358E-01
          0                 4           1             4    7     1      -0.1483078123E-04       4    7    1        -0.8454725848E-03      0.1910453019E-02

    ------------------------------------------------
       NWT REQUIRED            4 OUTER ITERATIONS 
       AND A TOTAL OF          7 INNER ITERATIONS.
    ------------------------------------------------

 NO OUTPUT CONTROL FOR STRESS PERIOD   47   TIME STEP    2
 
 SOLVING FOR HEAD 
                                                   Max.-Head-Change                         Max.-Flux-Residual
  Residual-Control   Outer-Iter.   Inner-Iter.     Column Row Layer    Maximum-Head-Change  Column Row Layer    Maximum-Flux-Residual          L2-NORM 
          0                 1           2             4    7     1       0.5568963311E-01       4    7    1         0.2923537597E+01      0.6539079763E+01
          0                 2           2             4    7     1      -0.5417116176E-02       4    7    1        -0.2923560422E+00      0.6539037874E+00
          0                 3           2             4    7     1       0.3688852020E-03       4    7    1         0.2046491019E-01      0.4577287444E-01
          0                 4           1             4    7     1      -0.1467828896E-04       4    7    1        -0.8370161095E-03      0.1872088137E-02

    ------------------------------------------------
       NWT REQUIRED            4 OUTER ITERATIONS 
       AND A TOTAL OF          7 INNER ITERATIONS.
    ------------------------------------------------

 NO OUTPUT CONTROL FOR STRESS PERIOD   47   TIME STEP    3
 
 SOLVING FOR HEAD 
                                                   Max.-Head-Change                         Max.-Flux-Residual
  Residual-Control   Outer-Iter.   Inner-Iter.     Column Row Layer    Maximum-Head-Change  Column Row Layer    Maximum-Flux-Residual          L2-NORM 
          0                 1           2             4    7     1       0.5510218797E-01       4    7    1         0.2893465827E+01      0.6410310559E+01
          0                 2           2             4    7     1      -0.5359974885E-02       4    7    1        -0.2893489383E+00      0.6410276611E+00
          0                 3           2             4    7     1       0.3649940812E-03       4    7    1         0.2025441215E-01      0.4487159404E-01
          0                 4           1             4    7     1      -0.1452345731E-04       4    7    1        -0.8284067062E-03      0.1835231099E-02

    ------------------------------------------------
       NWT REQUIRED            4 OUTER ITERATIONS 
       AND A TOTAL OF          7 INNER ITERATIONS.
    ------------------------------------------------

 NO OUTPUT CONTROL FOR STRESS PERIOD   47   TIME STEP    4
 
 SOLVING FOR HEAD 
                                                   Max.-Head-Change                         Max.-Flux-Residual
  Residual-Control   Outer-Iter.   Inner-Iter.     Column Row Layer    Maximum-Head-Change  Column Row Layer    Maximum-Flux-Residual          L2-NORM 
          0                 1           2             4    7     1       0.5450749920E-01       4    7    1         0.2862949975E+01      0.6286451721E+01
          0                 2           2             4    7     1      -0.5302128795E-02       4    7    1        -0.2862974133E+00      0.6286424749E+00
          0                 3           2             4    7     1       0.3610549681E-03       4    7    1         0.2004080475E-01      0.4400467701E-01
          0                 4           1             4    7     1      -0.1436671638E-04       4    7    1        -0.8196701574E-03      0.1799768901E-02

    ------------------------------------------------
       NWT REQUIRED            4 OUTER ITERATIONS 
       AND A TOTAL OF          7 INNER ITERATIONS.
    ------------------------------------------------

 NO OUTPUT CONTROL FOR STRESS PERIOD   47   TIME STEP    5
 
 SOLVING FOR HEAD 
                                                   Max.-Head-Change                         Max.-Flux-Residual
  Residual-Control   Outer-Iter.   Inner-Iter.     Column Row Layer    Maximum-Head-Change  Column Row Layer    Maximum-Flux-Residual          L2-NORM 
          0                 1           2             4    7     1       0.5390666530E-01       4    7    1         0.2832051294E+01      0.6167209994E+01
          0                 2           2             4    7     1      -0.5243684778E-02       4    7    1        -0.2832075941E+00      0.6167189106E+00
          0                 3           2             4    7     1       0.3570751397E-03       4    7    1         0.1982451683E-01      0.4317008069E-01
          0                 4           1             4    7     1      -0.1420835525E-04       4    7    1        -0.8108239726E-03      0.1765644249E-02

    ------------------------------------------------
       NWT REQUIRED            4 OUTER ITERATIONS 
       AND A TOTAL OF          7 INNER ITERATIONS.
    ------------------------------------------------

 NO OUTPUT CONTROL FOR STRESS PERIOD   47   TIME STEP    6
 
 SOLVING FOR HEAD 
                                                   Max.-Head-Change                         Max.-Flux-Residual
  Residual-Control   Outer-Iter.   Inner-Iter.     Column Row Layer    Maximum-Head-Change  Column Row Layer    Maximum-Flux-Residual          L2-NORM 
          0                 1           2             4    7     1       0.5330070833E-01       4    7    1         0.2800826741E+01      0.6053332081E+01
          0                 2           2             4    7     1      -0.5184742270E-02       4    7    1        -0.2800851771E+00      0.6053329496E+00
          0                 3           2             4    7     1       0.3530613679E-03       4    7    1         0.1960594719E-01      0.4237323307E-01
          0                 4           1             4    7     1      -0.1404864368E-04       4    7    1        -0.8018844692E-03      0.1733066235E-02

    ------------------------------------------------
       NWT REQUIRED            4 OUTER ITERATIONS 
       AND A TOTAL OF          7 INNER ITERATIONS.
    ------------------------------------------------

 NO OUTPUT CONTROL FOR STRESS PERIOD   47   TIME STEP    7
 
 SOLVING FOR HEAD 
                                                   Max.-Head-Change                         Max.-Flux-Residual
  Residual-Control   Outer-Iter.   Inner-Iter.     Column Row Layer    Maximum-Head-Change  Column Row Layer    Maximum-Flux-Residual          L2-NORM 
          0                 1           2             4    7     1       0.5269097770E-01       4    7    1         0.2769351023E+01      0.5943467753E+01
          0                 2           2             4    7     1      -0.5125432547E-02       4    7    1        -0.2769376343E+00      0.5943473866E+00
          0                 3           2             4    7     1       0.3490225915E-03       4    7    1         0.1938561882E-01      0.4160430174E-01
          0                 4           1             4    7     1      -0.1388793718E-04       4    7    1        -0.7928730347E-03      0.1701616892E-02

    ------------------------------------------------
       NWT REQUIRED            4 OUTER ITERATIONS 
       AND A TOTAL OF          7 INNER ITERATIONS.
    ------------------------------------------------

 NO OUTPUT CONTROL FOR STRESS PERIOD   47   TIME STEP    8
 
 SOLVING FOR HEAD 
                                                   Max.-Head-Change                         Max.-Flux-Residual
  Residual-Control   Outer-Iter.   Inner-Iter.     Column Row Layer    Maximum-Head-Change  Column Row Layer    Maximum-Flux-Residual          L2-NORM 
          0                 1           2             4    7     1       0.5207834255E-01       4    7    1         0.2737672389E+01      0.5836504827E+01
          0                 2           2             4    7     1      -0.5065840165E-02       4    7    1        -0.2737697913E+00      0.5836512279E+00
          0                 3           2             4    7     1       0.3449645682E-03       4    7    1         0.1916386953E-01      0.4085557121E-01
          0                 4           1             4    7     1      -0.1372646451E-04       4    7    1        -0.7838034671E-03      0.1670992805E-02

    ------------------------------------------------
       NWT REQUIRED            4 OUTER ITERATIONS 
       AND A TOTAL OF          7 INNER ITERATIONS.
    ------------------------------------------------

 NO OUTPUT CONTROL FOR STRESS PERIOD   47   TIME STEP    9
 
 SOLVING FOR HEAD 
                                                   Max.-Head-Change                         Max.-Flux-Residual
  Residual-Control   Outer-Iter.   Inner-Iter.     Column Row Layer    Maximum-Head-Change  Column Row Layer    Maximum-Flux-Residual          L2-NORM 
          0                 1           2             4    7     1       0.5146373994E-01       4    7    1         0.2705843142E+01      0.5733186420E+01
          0                 2           2             4    7     1      -0.5006056287E-02       4    7    1        -0.2705868791E+00      0.5733195330E+00
          0                 3           2             4    7     1       0.3408935056E-03       4    7    1         0.1894106545E-01      0.4013236925E-01
          0                 4           1             4    7     1      -0.1356447318E-04       4    7    1        -0.7746907745E-03      0.1641416733E-02

    ------------------------------------------------
       NWT REQUIRED            4 OUTER ITERATIONS 
       AND A TOTAL OF          7 INNER ITERATIONS.
    ------------------------------------------------

 NO OUTPUT CONTROL FOR STRESS PERIOD   47   TIME STEP   10
 
 SOLVING FOR HEAD 
                                                   Max.-Head-Change                         Max.-Flux-Residual
  Residual-Control   Outer-Iter.   Inner-Iter.     Column Row Layer    Maximum-Head-Change  Column Row Layer    Maximum-Flux-Residual          L2-NORM 
          0                 1           2             4    7     1       0.5084790724E-01       4    7    1         0.2673904625E+01      0.5633307828E+01
          0                 2           2             4    7     1      -0.4946154506E-02       4    7    1        -0.2673931326E+00      0.5633319956E+00
          0                 3           2             4    7     1       0.3368144155E-03       4    7    1         0.1871750305E-01      0.3943322975E-01
          0                 4           1             4    7     1      -0.1340216226E-04       4    7    1        -0.7655470513E-03      0.1612818139E-02

    ------------------------------------------------
       NWT REQUIRED            4 OUTER ITERATIONS 
       AND A TOTAL OF          7 INNER ITERATIONS.
    ------------------------------------------------

 NO OUTPUT CONTROL FOR STRESS PERIOD   47   TIME STEP   11
 
 SOLVING FOR HEAD 
                                                   Max.-Head-Change                         Max.-Flux-Residual
  Residual-Control   Outer-Iter.   Inner-Iter.     Column Row Layer    Maximum-Head-Change  Column Row Layer    Maximum-Flux-Residual          L2-NORM 
          0                 1           2             4    7     1       0.5023192322E-01       4    7    1         0.2641916798E+01      0.5536701026E+01
          0                 2           2             4    7     1      -0.4886111154E-02       4    7    1        -0.2642624817E+00      0.5536764188E+00
          0                 3           2             4    7     1       0.3326059815E-03       4    7    1         0.1848612340E-01      0.3875640377E-01
          0                 4           1             4    7     1      -0.1323470479E-04       4    7    1        -0.7560836116E-03      0.1585139804E-02

    ------------------------------------------------
       NWT REQUIRED            4 OUTER ITERATIONS 
       AND A TOTAL OF          7 INNER ITERATIONS.
    ------------------------------------------------

 NO OUTPUT CONTROL FOR STRESS PERIOD   47   TIME STEP   12
 
 SOLVING FOR HEAD 
                                                   Max.-Head-Change                         Max.-Flux-Residual
  Residual-Control   Outer-Iter.   Inner-Iter.     Column Row Layer    Maximum-Head-Change  Column Row Layer    Maximum-Flux-Residual          L2-NORM 
          0                 1           2             4    7     1       0.4961626147E-01       4    7    1         0.2609906620E+01      0.5443187276E+01
          0                 2           2             4    7     1      -0.4845477990E-02       4    7    1        -0.2621379135E+00      0.5451221455E+00
          0                 3           2             4    7     1       0.3282919125E-03       4    7    1         0.1825768659E-01      0.3794441790E-01
          0                 4           1             4    7     1      -0.1561341474E-04       4    7    1        -0.8913553556E-03      0.1896587312E-02

    ------------------------------------------------
       NWT REQUIRED            4 OUTER ITERATIONS 
       AND A TOTAL OF          7 INNER ITERATIONS.
    ------------------------------------------------

 NO OUTPUT CONTROL FOR STRESS PERIOD   47   TIME STEP   13
 
 SOLVING FOR HEAD 
                                                   Max.-Head-Change                         Max.-Flux-Residual
  Residual-Control   Outer-Iter.   Inner-Iter.     Column Row Layer    Maximum-Head-Change  Column Row Layer    Maximum-Flux-Residual          L2-NORM 
          0                 1           2             4    7     1       0.4897515783E-01       4    7    1         0.2577217421E+01      0.5352574551E+01
          0                 2           2             4    7     1      -0.6976318601E-02       4    7    1        -0.3764503821E+00      0.8174488329E+00
          0                 3           2             4    7     1       0.2627225793E-02       4    7    1         0.1450774495E+00      0.3470450081E+00
          0                 4           2             4    7     1      -0.1045398231E-03       4    7    1        -0.5933679176E-02      0.1419447046E-01
          0                 5           1             4    7     1       0.1289021365E-05       4    7    1         0.7519800783E-04      0.1799517268E-03

    ------------------------------------------------
       NWT REQUIRED            5 OUTER ITERATIONS 
       AND A TOTAL OF          9 INNER ITERATIONS.
    ------------------------------------------------

 NO OUTPUT CONTROL FOR STRESS PERIOD   47   TIME STEP   14
 
 SOLVING FOR HEAD 
                                                   Max.-Head-Change                         Max.-Flux-Residual
  Residual-Control   Outer-Iter.   Inner-Iter.     Column Row Layer    Maximum-Head-Change  Column Row Layer    Maximum-Flux-Residual          L2-NORM 
          0                 1           2             4    7     1       0.4834995532E-01       4    7    1         0.2544607502E+01      0.5264727181E+01
          0                 2           2             4    7     1      -0.4703171407E-02       4    7    1        -0.2544634175E+00      0.5264739684E+00
          0                 3           2             5    8     1      -0.1778512379E-02       5    8    1        -0.9800855171E-01      0.2360750213E+00
          0                 4           2             4    7     1       0.2109996279E-02       5    8    1         0.1168004031E+00      0.2856997003E+00
          0                 5           1             4    7     1      -0.8397883619E-04       5    8    1        -0.4778287279E-02      0.1168805244E-01

    ------------------------------------------------
       NWT REQUIRED            5 OUTER ITERATIONS 
       AND A TOTAL OF          9 INNER ITERATIONS.
    ------------------------------------------------

 NO OUTPUT CONTROL FOR STRESS PERIOD   47   TIME STEP   15
 
 SOLVING FOR HEAD 
                                                   Max.-Head-Change                         Max.-Flux-Residual
  Residual-Control   Outer-Iter.   Inner-Iter.     Column Row Layer    Maximum-Head-Change  Column Row Layer    Maximum-Flux-Residual          L2-NORM 
          0                 1           2             4    7     1       0.4772780925E-01       4    7    1         0.2512126943E+01      0.5179533565E+01
          0                 2           2             4    7     1      -0.4642681872E-02       4    7    1        -0.2512153382E+00      0.5179664087E+00
          0                 3           2             5    8     1      -0.1828092316E-02       5    8    1        -0.1007426821E+00      0.2427389105E+00
          0                 4           2             4    7     1       0.2158171053E-02       5    8    1         0.1194607756E+00      0.2922130275E+00
          0                 5           1             4    7     1      -0.8589761286E-04       5    8    1        -0.4887201994E-02      0.1195471007E-01

    ------------------------------------------------
       NWT REQUIRED            5 OUTER ITERATIONS 
       AND A TOTAL OF          9 INNER ITERATIONS.
    ------------------------------------------------

 NO OUTPUT CONTROL FOR STRESS PERIOD   47   TIME STEP   16
 
 SOLVING FOR HEAD 
                                                   Max.-Head-Change                         Max.-Flux-Residual
  Residual-Control   Outer-Iter.   Inner-Iter.     Column Row Layer    Maximum-Head-Change  Column Row Layer    Maximum-Flux-Residual          L2-NORM 
          0                 1           2             4    7     1       0.4710908240E-01       4    7    1         0.2479802925E+01      0.5096859464E+01
          0                 2           2             4    7     1      -0.4582467629E-02       4    7    1        -0.2479829110E+00      0.5096872386E+00
          0                 3           2             5    8     1      -0.1860178497E-02       5    8    1        -0.1025115908E+00      0.2470893076E+00
          0                 4           2             4    7     1       0.2188221852E-02       5    8    1         0.1211192304E+00      0.2962762435E+00
          0                 5           1             4    7     1      -0.8709259526E-04       5    8    1        -0.4954989416E-02      0.1212078467E-01

    ------------------------------------------------
       NWT REQUIRED            5 OUTER ITERATIONS 
       AND A TOTAL OF          9 INNER ITERATIONS.
    ------------------------------------------------

 NO OUTPUT CONTROL FOR STRESS PERIOD   47   TIME STEP   17
 
 SOLVING FOR HEAD 
                                                   Max.-Head-Change                         Max.-Flux-Residual
  Residual-Control   Outer-Iter.   Inner-Iter.     Column Row Layer    Maximum-Head-Change  Column Row Layer    Maximum-Flux-Residual          L2-NORM 
          0                 1           2             4    7     1       0.4649433620E-01       4    7    1         0.2447659222E+01      0.5016576690E+01
          0                 2           2             4    7     1      -0.4522669190E-02       4    7    1        -0.2447685131E+00      0.5016589724E+00
          0                 3           2             5    8     1      -0.1883483087E-02       5    8    1        -0.1037971530E+00      0.2502403745E+00
          0                 4           2             4    7     1       0.2208929757E-02       5    8    1         0.1222622679E+00      0.2990761265E+00
          0                 5           1             4    7     1      -0.8791747894E-04       5    8    1        -0.5001790561E-02      0.1223542678E-01

    ------------------------------------------------
       NWT REQUIRED            5 OUTER ITERATIONS 
       AND A TOTAL OF          9 INNER ITERATIONS.
    ------------------------------------------------

 NO OUTPUT CONTROL FOR STRESS PERIOD   47   TIME STEP   18
 
 SOLVING FOR HEAD 
                                                   Max.-Head-Change                         Max.-Flux-Residual
  Residual-Control   Outer-Iter.   Inner-Iter.     Column Row Layer    Maximum-Head-Change  Column Row Layer    Maximum-Flux-Residual          L2-NORM 
          0                 1           2             4    7     1       0.4588384343E-01       4    7    1         0.2415713120E+01      0.4938593183E+01
          0                 2           2             4    7     1      -0.4463284431E-02       4    7    1        -0.2415738713E+00      0.4938606220E+00
          0                 3           2             5    8     1      -0.1901481294E-02       5    8    1        -0.1047903294E+00      0.2526810102E+00
          0                 4           2             4    7     1       0.2224149320E-02       5    8    1         0.1231019816E+00      0.3011335602E+00
          0                 5           1             4    7     1      -0.8852480075E-04       5    8    1        -0.5036232468E-02      0.1231982318E-01

    ------------------------------------------------
       NWT REQUIRED            5 OUTER ITERATIONS 
       AND A TOTAL OF          9 INNER ITERATIONS.
    ------------------------------------------------

 NO OUTPUT CONTROL FOR STRESS PERIOD   47   TIME STEP   19
 
 SOLVING FOR HEAD 
                                                   Max.-Head-Change                         Max.-Flux-Residual
  Residual-Control   Outer-Iter.   Inner-Iter.     Column Row Layer    Maximum-Head-Change  Column Row Layer    Maximum-Flux-Residual          L2-NORM 
          0                 1           2             4    7     1       0.4527826378E-01       4    7    1         0.2384002035E+01      0.4862803342E+01
          0                 2           2             4    7     1      -0.4404377617E-02       4    7    1        -0.2384027325E+00      0.4862816433E+00
          0                 3           2             5    6     1      -0.1916158817E-02       5    8    1        -0.1055935113E+00      0.2546618825E+00
          0                 4           2             4    7     1       0.2235853297E-02       5    8    1         0.1237472628E+00      0.3027152193E+00
          0                 5           1             4    7     1      -0.8898957232E-04       5    8    1        -0.5062571186E-02      0.1238438198E-01

    ------------------------------------------------
       NWT REQUIRED            5 OUTER ITERATIONS 
       AND A TOTAL OF          9 INNER ITERATIONS.
    ------------------------------------------------

 NO OUTPUT CONTROL FOR STRESS PERIOD   47   TIME STEP   20
 
 SOLVING FOR HEAD 
                                                   Max.-Head-Change                         Max.-Flux-Residual
  Residual-Control   Outer-Iter.   Inner-Iter.     Column Row Layer    Maximum-Head-Change  Column Row Layer    Maximum-Flux-Residual          L2-NORM 
          0                 1           2             4    7     1       0.4467767698E-01       4    7    1         0.2352531172E+01      0.4789113215E+01
          0                 2           2             4    7     1      -0.4345956616E-02       4    7    1        -0.2352556233E+00      0.4789126538E+00
          0                 3           2             5    6     1      -0.1928450577E-02       5    8    1        -0.1062648672E+00      0.2563254800E+00
          0                 4           2             4    7     1       0.2245162899E-02       5    8    1         0.1242599903E+00      0.3039726311E+00
          0                 5           1             4    7     1      -0.8936097418E-04       5    8    1        -0.5083596416E-02      0.1243594783E-01

    ------------------------------------------------
       NWT REQUIRED            5 OUTER ITERATIONS 
       AND A TOTAL OF          9 INNER ITERATIONS.
    ------------------------------------------------

 NO OUTPUT CONTROL FOR STRESS PERIOD   47   TIME STEP   21
 
 SOLVING FOR HEAD 
                                                   Max.-Head-Change                         Max.-Flux-Residual
  Residual-Control   Outer-Iter.   Inner-Iter.     Column Row Layer    Maximum-Head-Change  Column Row Layer    Maximum-Flux-Residual          L2-NORM 
          0                 1           2             4    7     1       0.4408253848E-01       4    7    1         0.2321326419E+01      0.4717428395E+01
          0                 2           2             4    7     1      -0.4288065108E-02       4    7    1        -0.2321350989E+00      0.4717441423E+00
          0                 3           2             5    6     1      -0.1939002034E-02       5    8    1        -0.1068403308E+00      0.2577594418E+00
          0                 4           2             4    7     1       0.2252763071E-02       5    8    1         0.1246780031E+00      0.3049984246E+00
          0                 5           1             4    7     1      -0.8966083613E-04       5    8    1        -0.5100548203E-02      0.1247754767E-01

    ------------------------------------------------
       NWT REQUIRED            5 OUTER ITERATIONS 
       AND A TOTAL OF          9 INNER ITERATIONS.
    ------------------------------------------------

 NO OUTPUT CONTROL FOR STRESS PERIOD   47   TIME STEP   22
 
 SOLVING FOR HEAD 
                                                   Max.-Head-Change                         Max.-Flux-Residual
  Residual-Control   Outer-Iter.   Inner-Iter.     Column Row Layer    Maximum-Head-Change  Column Row Layer    Maximum-Flux-Residual          L2-NORM 
          0                 1           2             4    7     1       0.4349326572E-01       4    7    1         0.2290411388E+01      0.4647674725E+01
          0                 2           2             4    7     1      -0.4230744432E-02       4    7    1        -0.2290435603E+00      0.4647687565E+00
          0                 3           2             5    6     1      -0.1948236145E-02       5    8    1        -0.1073431922E+00      0.2590203799E+00
          0                 4           2             4    7     1       0.2259097486E-02       5    8    1         0.1250258149E+00      0.3058526150E+00
          0                 5           1             4    7     1      -0.8991259812E-04       5    8    1        -0.5114757237E-02      0.1251243942E-01

    ------------------------------------------------
       NWT REQUIRED            5 OUTER ITERATIONS 
       AND A TOTAL OF          9 INNER ITERATIONS.
    ------------------------------------------------

 NO OUTPUT CONTROL FOR STRESS PERIOD   47   TIME STEP   23
 
 SOLVING FOR HEAD 
                                                   Max.-Head-Change                         Max.-Flux-Residual
  Residual-Control   Outer-Iter.   Inner-Iter.     Column Row Layer    Maximum-Head-Change  Column Row Layer    Maximum-Flux-Residual          L2-NORM 
          0                 1           2             4    7     1       0.4290996810E-01       4    7    1         0.2259793224E+01      0.4579766745E+01
          0                 2           2             4    7     1      -0.4174004693E-02       4    7    1        -0.2259816930E+00      0.4579779411E+00
          0                 3           2             5    6     1      -0.1956439477E-02       5    8    1        -0.1077892387E+00      0.2601461874E+00
          0                 4           2             4    7     1       0.2264465277E-02       5    8    1         0.1253199562E+00      0.3065756401E+00
          0                 5           1             4    7     1      -0.9012606279E-04       5    8    1        -0.5126780577E-02      0.1254199149E-01

    ------------------------------------------------
       NWT REQUIRED            5 OUTER ITERATIONS 
       AND A TOTAL OF          9 INNER ITERATIONS.
    ------------------------------------------------

 NO OUTPUT CONTROL FOR STRESS PERIOD   47   TIME STEP   24
 
 SOLVING FOR HEAD 
                                                   Max.-Head-Change                         Max.-Flux-Residual
  Residual-Control   Outer-Iter.   Inner-Iter.     Column Row Layer    Maximum-Head-Change  Column Row Layer    Maximum-Flux-Residual          L2-NORM 
          0                 1           2             4    7     1       0.4233286910E-01       4    7    1         0.2229484849E+01      0.4513624340E+01
          0                 2           2             4    7     1      -0.4117868088E-02       4    7    1        -0.2229508140E+00      0.4513636731E+00
          0                 3           2             5    6     1      -0.1963817897E-02       5    8    1        -0.1081897644E+00      0.2611650111E+00
          0                 4           2             4    7     1       0.2269077552E-02       5    8    1         0.1255721105E+00      0.3071961027E+00
          0                 5           1             4    7     1      -0.9031138541E-04       5    8    1        -0.5137195477E-02      0.1256760730E-01

    ------------------------------------------------
       NWT REQUIRED            5 OUTER ITERATIONS 
       AND A TOTAL OF          9 INNER ITERATIONS.
    ------------------------------------------------

 NO OUTPUT CONTROL FOR STRESS PERIOD   47   TIME STEP   25
 
 SOLVING FOR HEAD 
                                                   Max.-Head-Change                         Max.-Flux-Residual
  Residual-Control   Outer-Iter.   Inner-Iter.     Column Row Layer    Maximum-Head-Change  Column Row Layer    Maximum-Flux-Residual          L2-NORM 
          0                 1           2             4    7     1       0.4176216364E-01       4    7    1         0.2199497851E+01      0.4449184859E+01
          0                 2           2             4    7     1      -0.4062353388E-02       4    7    1        -0.2199520718E+00      0.4449197168E+00
          0                 3           2             5    6     1      -0.1970517909E-02       5    8    1        -0.1085529093E+00      0.2620954792E+00
          0                 4           2             4    7     1       0.2273084862E-02       5    8    1         0.1257906062E+00      0.3077344205E+00
          0                 5           1             4    7     1      -0.9046895074E-04       5    8    1        -0.5146024825E-02      0.1258937449E-01

    ------------------------------------------------
       NWT REQUIRED            5 OUTER ITERATIONS 
       AND A TOTAL OF          9 INNER ITERATIONS.
    ------------------------------------------------

 NO OUTPUT CONTROL FOR STRESS PERIOD   47   TIME STEP   26
 
 SOLVING FOR HEAD 
                                                   Max.-Head-Change                         Max.-Flux-Residual
  Residual-Control   Outer-Iter.   Inner-Iter.     Column Row Layer    Maximum-Head-Change  Column Row Layer    Maximum-Flux-Residual          L2-NORM 
          0                 1           2             4    7     1       0.4119815299E-01       4    7    1         0.2169849591E+01      0.4386381581E+01
          0                 2           2             4    7     1      -0.4007489902E-02       4    7    1        -0.2169872028E+00      0.4386393689E+00
          0                 3           2             5    6     1      -0.1976653418E-02       5    8    1        -0.1088849613E+00      0.2629530768E+00
          0                 4           2             4    7     1       0.2276603795E-02       5    8    1         0.1259819109E+00      0.3082063392E+00
          0                 5           1             4    7     1      -0.9060970613E-04       5    8    1        -0.5153890787E-02      0.1260878421E-01

    ------------------------------------------------
       NWT REQUIRED            5 OUTER ITERATIONS 
       AND A TOTAL OF          9 INNER ITERATIONS.
    ------------------------------------------------

 NO OUTPUT CONTROL FOR STRESS PERIOD   47   TIME STEP   27
 
 SOLVING FOR HEAD 
                                                   Max.-Head-Change                         Max.-Flux-Residual
  Residual-Control   Outer-Iter.   Inner-Iter.     Column Row Layer    Maximum-Head-Change  Column Row Layer    Maximum-Flux-Residual          L2-NORM 
          0                 1           2             4    7     1       0.4064097860E-01       4    7    1         0.2140548436E+01      0.4325151522E+01
          0                 2           2             4    7     1      -0.3953291585E-02       4    7    1        -0.2140570543E+00      0.4325163688E+00
          0                 3           2             5    6     1      -0.1982309584E-02       5    8    1        -0.1091906234E+00      0.2637490144E+00
          0                 4           2             4    7     1       0.2279717229E-02       5    8    1         0.1261506232E+00      0.3086231220E+00
          0                 5           1             4    7     1      -0.9073379734E-04       5    8    1        -0.5160802706E-02      0.1262585563E-01

    ------------------------------------------------
       NWT REQUIRED            5 OUTER ITERATIONS 
       AND A TOTAL OF          9 INNER ITERATIONS.
    ------------------------------------------------

 NO OUTPUT CONTROL FOR STRESS PERIOD   47   TIME STEP   28
 
 SOLVING FOR HEAD 
                                                   Max.-Head-Change                         Max.-Flux-Residual
  Residual-Control   Outer-Iter.   Inner-Iter.     Column Row Layer    Maximum-Head-Change  Column Row Layer    Maximum-Flux-Residual          L2-NORM 
          0                 1           2             4    7     1       0.4009062142E-01       4    7    1         0.2111594465E+01      0.4265425223E+01
          0                 2           2             4    7     1      -0.3899756163E-02       4    7    1        -0.2111616117E+00      0.4265437108E+00
          0                 3           2             5    6     1      -0.1987555255E-02       5    8    1        -0.1094736429E+00      0.2644921756E+00
          0                 4           2             4    7     1       0.2282493269E-02       5    8    1         0.1263005171E+00      0.3089939986E+00
          0                 5           1             4    7     1      -0.9084410995E-04       5    8    1        -0.5166924899E-02      0.1264099826E-01

    ------------------------------------------------
       NWT REQUIRED            5 OUTER ITERATIONS 
       AND A TOTAL OF          9 INNER ITERATIONS.
    ------------------------------------------------

 NO OUTPUT CONTROL FOR STRESS PERIOD   47   TIME STEP   29
 
 SOLVING FOR HEAD 
                                                   Max.-Head-Change                         Max.-Flux-Residual
  Residual-Control   Outer-Iter.   Inner-Iter.     Column Row Layer    Maximum-Head-Change  Column Row Layer    Maximum-Flux-Residual          L2-NORM 
          0                 1           2             4    7     1       0.3954731899E-01       4    7    1         0.2083001202E+01      0.4207694802E+01
          0                 2           2             4    7     1      -0.3846907147E-02       4    7    1        -0.2083022490E+00      0.4207707917E+00
          0                 3           2             5    6     1      -0.1992444123E-02       5    8    1        -0.1097369072E+00      0.2651960699E+00
          0                 4           2             4    7     1       0.2284983657E-02       5    8    1         0.1264344695E+00      0.3093244542E+00
          0                 5           1             4    7     1      -0.9095321417E-04       5    8    1        -0.5172971118E-02      0.1265588763E-01

    ------------------------------------------------
       NWT REQUIRED            5 OUTER ITERATIONS 
       AND A TOTAL OF          9 INNER ITERATIONS.
    ------------------------------------------------

 NO OUTPUT CONTROL FOR STRESS PERIOD   47   TIME STEP   30



 STREAM LISTING     PERIOD     47   STEP       30

 LAYER ROW COL. STREAM  RCH.  FLOW INTO     FLOW TO   FLOW OUT OF   OVRLND.     DIRECT     STREAM       STREAM     STREAM     STREAM   STREAMBED  STREAMBED
                SEG.NO.  NO.  STRM. RCH.    AQUIFER    STRM. RCH.    RUNOFF     PRECIP       ET          HEAD       DEPTH      WIDTH   CONDCTNC.   GRADIENT

   1    1    1     1     1    7.9710E+00  1.2901E-01   7.8420E+00  0.000E+00  0.000E+00  0.000E+00  1.09388E+03  8.328E-01  7.480E+00  3.366E-02  1.278E+00
   1    2    2     1     2    7.8420E+00  1.9811E-01   7.6439E+00  0.000E+00  0.000E+00  0.000E+00  1.08889E+03  8.271E-01  7.395E+00  5.177E-02  1.276E+00
   1    3    3     1     3    7.6439E+00  1.6733E-01   7.4765E+00  0.000E+00  0.000E+00  0.000E+00  1.08324E+03  8.206E-01  7.300E+00  4.380E-02  1.274E+00
   1    3    4     1     4    7.4765E+00  1.5276E-01   7.3238E+00  0.000E+00  0.000E+00  0.000E+00  1.07822E+03  8.148E-01  7.215E+00  4.004E-02  1.272E+00
   1    4    5     2     1    5.3238E+00  2.7067E-01   5.0531E+00  0.000E+00  0.000E+00  0.000E+00  1.07240E+03  4.701E-01  1.200E+01  7.800E-02  1.157E+00
   1    5    6     2     2    5.0531E+00  2.0742E-01   4.8457E+00  0.000E+00  0.000E+00  0.000E+00  1.06697E+03  4.570E-01  1.200E+01  6.000E-02  1.152E+00
   1    6    6     2     3    4.8457E+00  2.0672E-01   4.6390E+00  0.000E+00  0.000E+00  0.000E+00  1.06224E+03  4.454E-01  1.200E+01  6.000E-02  1.148E+00
   1    7    6     2     4    4.6390E+00  2.0602E-01   4.4330E+00  0.000E+00  0.000E+00  0.000E+00  1.05751E+03  4.337E-01  1.200E+01  6.000E-02  1.145E+00
   1    8    6     2     5    4.4330E+00  2.0530E-01   4.2276E+00  0.000E+00  0.000E+00  0.000E+00  1.05278E+03  4.218E-01  1.200E+01  6.000E-02  1.141E+00
   1    3    5     3     1    2.0000E+00  2.8252E-01   1.7175E+00  0.000E+00  0.000E+00  0.000E+00  1.07555E+03  1.909E+00  9.636E+00  7.227E-02  1.955E+00
   1    3    6     3     2    1.7175E+00  2.4905E-01   1.4684E+00  0.000E+00  0.000E+00  0.000E+00  1.07264E+03  1.727E+00  8.909E+00  6.682E-02  1.864E+00
   1    3    7     3     3    1.4684E+00  1.9718E-01   1.2712E+00  0.000E+00  0.000E+00  0.000E+00  1.06987E+03  1.555E+00  8.218E+00  5.547E-02  1.777E+00
   1    4    8     3     4    1.2712E+00  2.2567E-01   1.0456E+00  0.000E+00  0.000E+00  0.000E+00  1.06682E+03  1.364E+00  7.455E+00  6.709E-02  1.682E+00
   1    5    8     3     5    1.0456E+00  1.5790E-01   8.8768E-01  0.000E+00  0.000E+00  0.000E+00  1.06362E+03  1.164E+00  6.655E+00  4.991E-02  1.582E+00
   1    6    8     3     6    8.8768E-01  5.5980E-02   8.3170E-01  0.000E+00  0.000E+00  0.000E+00  1.06158E+03  1.036E+00  6.145E+00  1.844E-02  1.518E+00
   1    5   10     4     1    1.0000E+01  9.0919E-02   9.9091E+00  0.000E+00  0.000E+00  0.000E+00  1.07836E+03  6.368E-01  1.000E+01  2.500E-02  1.212E+00
   1    5    9     4     2    9.9091E+00  1.8158E-01   9.7275E+00  0.000E+00  0.000E+00  0.000E+00  1.07154E+03  6.315E-01  1.000E+01  5.000E-02  1.211E+00
   1    6    8     4     3    9.7275E+00  1.2689E-01   9.6006E+00  0.000E+00  0.000E+00  0.000E+00  1.06381E+03  6.256E-01  1.000E+01  3.500E-02  1.209E+00
   1    6    8     5     1    1.0432E+01  2.2686E-01   1.0205E+01  0.000E+00  0.000E+00  0.000E+00  1.05868E+03  6.790E-01  1.542E+01  6.166E-02  1.226E+00
   1    7    7     5     2    1.0205E+01  2.7894E-01   9.9265E+00  0.000E+00  0.000E+00  0.000E+00  1.05417E+03  6.732E-01  1.519E+01  7.594E-02  1.224E+00
   1    8    7     5     3    9.9265E+00  1.9221E-01   9.7343E+00  0.000E+00  0.000E+00  0.000E+00  1.04992E+03  6.676E-01  1.497E+01  5.241E-02  1.223E+00
   1    8    6     5     4    9.7343E+00  1.3577E-01   9.5985E+00  0.000E+00  0.000E+00  0.000E+00  1.04691E+03  6.637E-01  1.482E+01  3.706E-02  1.221E+00
   1    9    6     6     1    1.3114E+01  2.2948E-01   1.2884E+01  0.000E+00  0.000E+00  0.000E+00  1.04355E+03  8.247E-01  1.200E+01  6.000E-02  1.275E+00
   1   10    7     6     2    1.2884E+01  2.2896E-01   1.2655E+01  0.000E+00  0.000E+00  0.000E+00  1.03900E+03  8.160E-01  1.200E+01  6.000E-02  1.272E+00
   1   11    7     6     3    1.2655E+01  2.2843E-01   1.2427E+01  0.000E+00  0.000E+00  0.000E+00  1.03444E+03  8.072E-01  1.200E+01  6.000E-02  1.269E+00
   1   12    7     6     4    1.2427E+01  2.2790E-01   1.2199E+01  0.000E+00  0.000E+00  0.000E+00  1.02989E+03  7.983E-01  1.200E+01  6.000E-02  1.266E+00
   1   13    7     6     5    1.2199E+01  7.5693E-03   1.2191E+01  0.000E+00  0.000E+00  0.000E+00  1.02670E+03  7.937E-01  1.200E+01  2.400E-02  1.051E-01
   1   14    9     7     1    1.5000E+02  1.4111E+00   1.4859E+02  0.000E+00  0.000E+00  0.000E+00  1.03987E+03  2.288E+00  5.529E+01  5.593E-01  8.410E-01
   1   13    8     7     2    1.4859E+02  2.0632E+00   1.4653E+02  0.000E+00  0.000E+00  0.000E+00  1.03478E+03  2.278E+00  5.525E+01  6.147E-01  1.119E+00
   1   13    7     7     3    1.4653E+02  1.8423E+00   1.4468E+02  0.000E+00  0.000E+00  0.000E+00  1.02969E+03  2.268E+00  5.521E+01  5.583E-01  1.100E+00
   1   13    6     8     1    1.5687E+02  1.2035E+00   1.5567E+02  0.000E+00  0.000E+00  0.000E+00  1.02474E+03  2.860E+00  4.148E+01  4.227E-01  9.491E-01
   1   13    5     8     2    1.5567E+02  4.4268E-01   1.5523E+02  0.000E+00  0.000E+00  0.000E+00  1.01848E+03  2.855E+00  4.139E+01  4.218E-01  3.498E-01
   1   13    4     8     3    1.5523E+02 -1.5224E+00   1.5675E+02  0.000E+00  0.000E+00  0.000E+00  1.01223E+03  2.859E+00  4.145E+01  4.224E+00 -1.201E-01
   1   13    3     8     4    1.5675E+02 -3.1924E+00   1.5994E+02  0.000E+00  0.000E+00  0.000E+00  1.00600E+03  2.875E+00  4.168E+01  4.248E+00 -2.505E-01
   1   13    2     8     5    1.5994E+02 -2.4650E+00   1.6241E+02  0.000E+00  0.000E+00  0.000E+00  9.99769E+02  2.894E+00  4.196E+01  4.276E+00 -1.922E-01
   1   13    1     8     6    1.6241E+02 -1.9496E+00   1.6436E+02  0.000E+00  0.000E+00  0.000E+00  9.94784E+02  2.909E+00  4.217E+01  2.579E+00 -2.520E-01
   1    8    6     9     1    7.1251E-01  0.0000E+00   7.1251E-01  0.000E+00  0.000E+00  0.000E+00  1.07921E+03  4.645E-01  4.000E+00  0.000E+00  1.155E+00
   1    8    5     9     2    7.1251E-01  0.0000E+00   7.1251E-01  0.000E+00  0.000E+00  0.000E+00  1.07871E+03  4.645E-01  4.000E+00  0.000E+00  1.155E+00





UNSATURATED ZONE PACKAGE VOLUMETRIC BUDGET FOR  TIME STEP    30 STRESS PERIOD   47
  ------------------------------------------------------------------------------



     CUMULATIVE VOLUMES      L**3       RATES FOR THIS TIME STEP      L**3/T
     ------------------                 ------------------------

           IN:                                      IN:
           ---                                      ---
        INFILTRATION =  2187716542.8572          INFILTRATION =           1.5600

          OUT:                                     OUT:
          ----                                     ----
              UZF ET =  1703742258.0626                UZF ET =           1.5675
        UZF RECHARGE =    89935077.6917          UZF RECHARGE =       0.0000E+00

            IN - OUT =   394039207.1030              IN - OUT =      -7.4716E-03

          STORAGE:                                 STORAGE:
          --------                                 --------
      STORAGE CHANGE =   394049025.2740        STORAGE CHANGE =      -7.4716E-03

 PERCENT DISCREPANCY IS DIFFERENCE BETWEEN IN-OUT MINUS CHANGE IN STORAGE
 DIVIDED BY THE AVERAGE OF IN AND OUT TIMES 100

 PERCENT DISCREPANCY =          -0.00     PERCENT DISCREPANCY =           0.00






1
  VOLUMETRIC BUDGET FOR AGRICULTURAL FIELDS AT  END OF TIME STEP   30, STRESS PERIOD  47
  ------------------------------------------------------------------------------

     CUMULATIVE VOLUMES      L**3       RATES FOR THIS TIME STEP      L**3/T
     ------------------                 ------------------------

           IN:                                      IN:
           ---                                      ---
               AG WELLS  =  1373766400.0000                 AG WELLS  =       3.3975E-06
      DIVERSION SEGMENTS =   711589504.0000        DIVERSION SEGMENTS =           0.7125
       IRRIGATION PONDS  =           0.0000         IRRIGATION PONDS  =           0.0000
           GW IRRIGATION =           0.0000             GW IRRIGATION =           0.0000
           SW IRRIGATION =           0.0000             SW IRRIGATION =           0.0000
        SYSTEM LOSSES GW =           0.0000          SYSTEM LOSSES GW =           0.0000
        SYSTEM LOSSES SW =           0.0000          SYSTEM LOSSES SW =           0.0000

                TOTAL IN =  2085355904.0000                  TOTAL IN =           0.7125

          OUT:                                     OUT:
          ----                                     ----
               AG WELLS  =           0.0000                 AG WELLS  =           0.0000
      DIVERSION SEGMENTS =           0.0000        DIVERSION SEGMENTS =           0.0000
       IRRIGATION PONDS  =           0.0000         IRRIGATION PONDS  =           0.0000
           GW IRRIGATION =  1373766400.0000             GW IRRIGATION =       3.3975E-06
           SW IRRIGATION =   711603392.0000             SW IRRIGATION =           0.7125
        SYSTEM LOSSES GW =           0.0000          SYSTEM LOSSES GW =           0.0000
        SYSTEM LOSSES SW =           0.0000          SYSTEM LOSSES SW =           0.0000

               TOTAL OUT =  2085369856.0000                 TOTAL OUT =           0.7125

                IN - OUT =      -13952.0000                  IN - OUT =      -1.4246E-05

     PERCENT DISCREPANCY =          -0.00         PERCENT DISCREPANCY =          -0.00



1
  VOLUMETRIC BUDGET FOR ENTIRE MODEL AT END OF TIME STEP   30, STRESS PERIOD  47
  ------------------------------------------------------------------------------

     CUMULATIVE VOLUMES      L**3       RATES FOR THIS TIME STEP      L**3/T
     ------------------                 ------------------------

           IN:                                      IN:
           ---                                      ---
             STORAGE     =  2036794496.0000               STORAGE     =           8.3449
       CONSTANT HEAD     =           0.0000         CONSTANT HEAD     =           0.0000
     HEAD DEP BOUNDS     =    34986140.0000       HEAD DEP BOUNDS     =           0.2909
      STREAM LEAKAGE     =  1461945344.0000        STREAM LEAKAGE     =          12.0299
        UZF RECHARGE     =    89935088.0000          UZF RECHARGE     =           0.0000
               GW ET     =           0.0000                 GW ET     =           0.0000
     SURFACE LEAKAGE     =           0.0000       SURFACE LEAKAGE     =           0.0000
           AG WELLS      =           0.0000             AG WELLS      =           0.0000

                TOTAL IN =  3623661056.0000                  TOTAL IN =          20.6657

          OUT:                                     OUT:
          ----                                     ----
             STORAGE     =  1039805696.0000               STORAGE     =          11.2495
       CONSTANT HEAD     =           0.0000         CONSTANT HEAD     =           0.0000
     HEAD DEP BOUNDS     =    34829552.0000       HEAD DEP BOUNDS     =           0.2865
      STREAM LEAKAGE     =  1175222784.0000        STREAM LEAKAGE     =           9.1294
        UZF RECHARGE     =           0.0000          UZF RECHARGE     =           0.0000
               GW ET     =           0.0000                 GW ET     =           0.0000
     SURFACE LEAKAGE     =           0.0000       SURFACE LEAKAGE     =           0.0000
           AG WELLS      =  1373766400.0000             AG WELLS      =       3.3975E-06

               TOTAL OUT =  3623624448.0000                 TOTAL OUT =          20.6653

                IN - OUT =       36608.0000                  IN - OUT =       3.9673E-04

     PERCENT DISCREPANCY =           0.00         PERCENT DISCREPANCY =           0.00






         TIME SUMMARY AT END OF TIME STEP   30 IN STRESS PERIOD   47
                    SECONDS     MINUTES      HOURS       DAYS        YEARS
                    -----------------------------------------------------------
   TIME STEP LENGTH  87667.      1461.1      24.352      1.0147     2.77799E-03
 STRESS PERIOD TIME 2.63000E+06  43833.      730.56      30.440     8.33397E-02
         TOTAL TIME 1.21065E+08 2.01775E+06  33629.      1401.2      3.8363    
1
1
                            STRESS PERIOD NO.   48, LENGTH =   2630000.    
                            -----------------------------------------------

                              NUMBER OF TIME STEPS =    30

                               MULTIPLIER FOR DELT =     1.000

                            INITIAL TIME STEP SIZE =   87666.66    

 REUSING NON-PARAMETER GHB CELLS FROM LAST STRESS PERIOD

      2 GHB CELLS

 REUSING STREAM SEGMENT DATA FROM LAST STRESS PERIOD



            AREAL INFILTRATION RATE
 READING ON UNIT   19 WITH FORMAT: (FREE)              

            1           2           3           4           5           6           7           8           9          10
 ........................................................................................................................
   1   1.0000E-10  2.0000E-10   0.000       0.000       0.000       0.000       0.000       0.000       0.000       0.000    
   2   2.0000E-10  1.0000E-10  2.0000E-10   0.000       0.000      8.0000E-10  8.0000E-10  5.0000E-10   0.000       0.000    
   3    0.000      5.0000E-10  1.0000E-10  1.0000E-10  8.0000E-10  8.0000E-10  5.0000E-10  5.0000E-10   0.000       0.000    
   4   8.0000E-10  5.0000E-10  1.0000E-10  1.0000E-10  1.0000E-10  1.0000E-10  1.0000E-10  1.0000E-10  2.0000E-10   0.000    
   5   8.0000E-10  5.0000E-10  1.0000E-10  1.0000E-10  1.0000E-10  1.0000E-10  1.0000E-10  1.0000E-10  1.0000E-10  1.0000E-10
   6   8.0000E-10  5.0000E-10  5.0000E-10  2.0000E-10  2.0000E-10  1.0000E-10  1.0000E-10  1.0000E-10  1.0000E-10  5.0000E-10
   7   8.0000E-10  5.0000E-10  5.0000E-10  2.0000E-10  2.0000E-10  1.0000E-10  1.0000E-10  2.0000E-10  2.0000E-10   0.000    
   8    0.000      5.0000E-10  5.0000E-10  2.0000E-10  2.0000E-10  1.0000E-10  1.0000E-10  2.0000E-10  5.0000E-10   0.000    
   9    0.000      5.0000E-10  5.0000E-10  2.0000E-10  2.0000E-10  1.0000E-10  1.0000E-10  2.0000E-10  5.0000E-10   0.000    
  10    0.000      5.0000E-10  5.0000E-10  2.0000E-10  2.0000E-10  1.0000E-10  1.0000E-10  2.0000E-10  5.0000E-10  8.0000E-10
  11    0.000      1.0000E-10  1.0000E-10  1.0000E-10  1.0000E-10  1.0000E-10  1.0000E-10  2.0000E-10  5.0000E-10   0.000    
  12   1.0000E-10  1.0000E-10  1.0000E-10  1.0000E-10  1.0000E-10  1.0000E-10  1.0000E-10  1.0000E-10  2.0000E-10   0.000    
  13   1.0000E-10  1.0000E-10  2.0000E-10  2.0000E-10  2.0000E-10  2.0000E-10  2.0000E-10  1.0000E-10  1.0000E-10   0.000    
  14    0.000      2.0000E-10  5.0000E-10  5.0000E-10  5.0000E-10  5.0000E-10  5.0000E-10  2.0000E-10  1.0000E-10   0.000    
  15    0.000       0.000      8.0000E-10  8.0000E-10  8.0000E-10  8.0000E-10   0.000       0.000       0.000       0.000    

                  ET RATE =  5.000000E-10

 USING ET EXTINCTION DEPTH FROM PREVIOUS STRESS PERIOD. CURRENT PERIOD IS:      48

 USING EXTINCTION WATER CONTENT FROM PREVIOUS STRESS PERIOD. CURRENT PERIOD IS:      48

 USING AIR ENTRY PRESSURE FROM PREVIOUS STRESS PERIOD. CURRENT PERIOD IS:      48

 USING ROOT PRESSURE HEAD FROM PREVIOUS STRESS PERIOD. CURRENT PERIOD IS:      48

 USING ROOT ACTIVITY FROM PREVIOUS STRESS PERIOD. CURRENT PERIOD IS:      48

 PROCESSING AG STRESS PERIOD DATA

 READING AG STRESS PERIOD DATA

 READING IRRIGATION SEGMENT

 READING IRRIGATION WELL

 READING SUPPLEMENTAL WELL

 NO IRRPOND OR REUSING IRRPOND DATA FROM LAST STRESS PERIOD

 END PROCESSING AG STRESS PERIOD DATA OPTIONS
 
 SOLVING FOR HEAD 
                                                   Max.-Head-Change                         Max.-Flux-Residual
  Residual-Control   Outer-Iter.   Inner-Iter.     Column Row Layer    Maximum-Head-Change  Column Row Layer    Maximum-Flux-Residual          L2-NORM 
          0                 1           2             4    7     1       0.3901114886E-01       4    7    1         0.2054773712E+01      0.4151017276E+01
          0                 2           2             4    7     1      -0.3794751473E-02       4    7    1        -0.2054794401E+00      0.4151029906E+00
          0                 3           2             4    7     1       0.2584082092E-03       4    7    1         0.1438354743E-01      0.2905720768E-01
          0                 4           1             4    7     1      -0.1028230583E-04       4    7    1        -0.5882880014E-03      0.1188442005E-02

    ------------------------------------------------
       NWT REQUIRED            4 OUTER ITERATIONS 
       AND A TOTAL OF          7 INNER ITERATIONS.
    ------------------------------------------------

 NO OUTPUT CONTROL FOR STRESS PERIOD   48   TIME STEP    1
 
 SOLVING FOR HEAD 
                                                   Max.-Head-Change                         Max.-Flux-Residual
  Residual-Control   Outer-Iter.   Inner-Iter.     Column Row Layer    Maximum-Head-Change  Column Row Layer    Maximum-Flux-Residual          L2-NORM 
          0                 1           2             4    7     1       0.3848216585E-01       4    7    1         0.2026915678E+01      0.4095491566E+01
          0                 2           2             4    7     1      -0.3743295208E-02       4    7    1        -0.2026935929E+00      0.4095503988E+00
          0                 3           2             4    7     1       0.2549042349E-03       4    7    1         0.1418853848E-01      0.2866853011E-01
          0                 4           1             4    7     1      -0.1014287917E-04       4    7    1        -0.5803121180E-03      0.1172547046E-02

    ------------------------------------------------
       NWT REQUIRED            4 OUTER ITERATIONS 
       AND A TOTAL OF          7 INNER ITERATIONS.
    ------------------------------------------------

 NO OUTPUT CONTROL FOR STRESS PERIOD   48   TIME STEP    2
 
 SOLVING FOR HEAD 
                                                   Max.-Head-Change                         Max.-Flux-Residual
  Residual-Control   Outer-Iter.   Inner-Iter.     Column Row Layer    Maximum-Head-Change  Column Row Layer    Maximum-Flux-Residual          L2-NORM 
          0                 1           2             4    7     1       0.3796055546E-01       4    7    1         0.1999437861E+01      0.4041276048E+01
          0                 2           2             4    7     1      -0.3692556101E-02       4    7    1        -0.1999457676E+00      0.4041288297E+00
          0                 3           2             4    7     1       0.2514490960E-03       4    7    1         0.1399619104E-01      0.2828902029E-01
          0                 4           1             4    7     1      -0.1000539609E-04       4    7    1        -0.5724450962E-03      0.1157024491E-02

    ------------------------------------------------
       NWT REQUIRED            4 OUTER ITERATIONS 
       AND A TOTAL OF          7 INNER ITERATIONS.
    ------------------------------------------------

 NO OUTPUT CONTROL FOR STRESS PERIOD   48   TIME STEP    3
 
 SOLVING FOR HEAD 
                                                   Max.-Head-Change                         Max.-Flux-Residual
  Residual-Control   Outer-Iter.   Inner-Iter.     Column Row Layer    Maximum-Head-Change  Column Row Layer    Maximum-Flux-Residual          L2-NORM 
          0                 1           2             4    7     1       0.3744607777E-01       4    7    1         0.1972327779E+01      0.3988316418E+01
          0                 2           2             4    7     1      -0.3642510815E-02       4    7    1        -0.1972347161E+00      0.3988328360E+00
          0                 3           2             4    7     1       0.2480412039E-03       4    7    1         0.1380641776E-01      0.2791829679E-01
          0                 4           1             4    7     1      -0.9869793048E-05       4    7    1        -0.5646833574E-03      0.1141860710E-02

    ------------------------------------------------
       NWT REQUIRED            4 OUTER ITERATIONS 
       AND A TOTAL OF          7 INNER ITERATIONS.
    ------------------------------------------------

 NO OUTPUT CONTROL FOR STRESS PERIOD   48   TIME STEP    4
 
 SOLVING FOR HEAD 
                                                   Max.-Head-Change                         Max.-Flux-Residual
  Residual-Control   Outer-Iter.   Inner-Iter.     Column Row Layer    Maximum-Head-Change  Column Row Layer    Maximum-Flux-Residual          L2-NORM 
          0                 1           2             4    7     1       0.3693902343E-01       4    7    1         0.1945602025E+01      0.3936576943E+01
          0                 2           2             4    7     1      -0.3593187623E-02       4    7    1        -0.1945620977E+00      0.3936588660E+00
          0                 3           2             4    7     1       0.2446824834E-03       4    7    1         0.1361933479E-01      0.2755612138E-01
          0                 4           1             4    7     1      -0.9736146712E-05       4    7    1        -0.5570316594E-03      0.1127048868E-02

    ------------------------------------------------
       NWT REQUIRED            4 OUTER ITERATIONS 
       AND A TOTAL OF          7 INNER ITERATIONS.
    ------------------------------------------------

 NO OUTPUT CONTROL FOR STRESS PERIOD   48   TIME STEP    5
 
 SOLVING FOR HEAD 
                                                   Max.-Head-Change                         Max.-Flux-Residual
  Residual-Control   Outer-Iter.   Inner-Iter.     Column Row Layer    Maximum-Head-Change  Column Row Layer    Maximum-Flux-Residual          L2-NORM 
          0                 1           2             4    7     1       0.3643926229E-01       4    7    1         0.1919253895E+01      0.3886022309E+01
          0                 2           2             4    7     1      -0.3544573865E-02       4    7    1        -0.1919272420E+00      0.3886033731E+00
          0                 3           2             4    7     1       0.2413720728E-03       4    7    1         0.1343489521E-01      0.2720223328E-01
          0                 4           1             4    7     1      -0.9604421857E-05       4    7    1        -0.5494880625E-03      0.1112573757E-02

    ------------------------------------------------
       NWT REQUIRED            4 OUTER ITERATIONS 
       AND A TOTAL OF          7 INNER ITERATIONS.
    ------------------------------------------------

 NO OUTPUT CONTROL FOR STRESS PERIOD   48   TIME STEP    6
 
 SOLVING FOR HEAD 
                                                   Max.-Head-Change                         Max.-Flux-Residual
  Residual-Control   Outer-Iter.   Inner-Iter.     Column Row Layer    Maximum-Head-Change  Column Row Layer    Maximum-Flux-Residual          L2-NORM 
          0                 1           2             4    7     1       0.3594691843E-01       4    7    1         0.1893291157E+01      0.3836596570E+01
          0                 2           2             4    7     1      -0.3496681614E-02       4    7    1        -0.1893309261E+00      0.3836607741E+00
          0                 3           2             4    7     1       0.2381107941E-03       4    7    1         0.1325315342E-01      0.2685625155E-01
          0                 4           1             4    7     1      -0.9474652443E-05       4    7    1        -0.5420548041E-03      0.1098420223E-02

    ------------------------------------------------
       NWT REQUIRED            4 OUTER ITERATIONS 
       AND A TOTAL OF          7 INNER ITERATIONS.
    ------------------------------------------------

 NO OUTPUT CONTROL FOR STRESS PERIOD   48   TIME STEP    7
 
 SOLVING FOR HEAD 
                                                   Max.-Head-Change                         Max.-Flux-Residual
  Residual-Control   Outer-Iter.   Inner-Iter.     Column Row Layer    Maximum-Head-Change  Column Row Layer    Maximum-Flux-Residual          L2-NORM 
          0                 1           2             4    7     1       0.3546184105E-01       4    7    1         0.1867705727E+01      0.3788278067E+01
          0                 2           2             4    7     1      -0.3449496201E-02       4    7    1        -0.1867723415E+00      0.3788288977E+00
          0                 3           2             4    7     1       0.2348976481E-03       4    7    1         0.1307405281E-01      0.2651802099E-01
          0                 4           1             4    7     1      -0.9346798293E-05       4    7    1        -0.5347295769E-03      0.1084591224E-02

    ------------------------------------------------
       NWT REQUIRED            4 OUTER ITERATIONS 
       AND A TOTAL OF          7 INNER ITERATIONS.
    ------------------------------------------------

 NO OUTPUT CONTROL FOR STRESS PERIOD   48   TIME STEP    8
 
 SOLVING FOR HEAD 
                                                   Max.-Head-Change                         Max.-Flux-Residual
  Residual-Control   Outer-Iter.   Inner-Iter.     Column Row Layer    Maximum-Head-Change  Column Row Layer    Maximum-Flux-Residual          L2-NORM 
          0                 1           2             4    7     1       0.3498413780E-01       4    7    1         0.1842504307E+01      0.3741027898E+01
          0                 2           2             4    7     1      -0.3403028098E-02       4    7    1        -0.1842521584E+00      0.3741038512E+00
          0                 3           2             4    7     1       0.2317333489E-03       4    7    1         0.1289764032E-01      0.2618726938E-01
          0                 4           1             4    7     1      -0.9220888071E-05       4    7    1        -0.5275143044E-03      0.1071062483E-02

    ------------------------------------------------
       NWT REQUIRED            4 OUTER ITERATIONS 
       AND A TOTAL OF          7 INNER ITERATIONS.
    ------------------------------------------------

 NO OUTPUT CONTROL FOR STRESS PERIOD   48   TIME STEP    9
 
 SOLVING FOR HEAD 
                                                   Max.-Head-Change                         Max.-Flux-Residual
  Residual-Control   Outer-Iter.   Inner-Iter.     Column Row Layer    Maximum-Head-Change  Column Row Layer    Maximum-Flux-Residual          L2-NORM 
          0                 1           2             4    7     1       0.3451376972E-01       4    7    1         0.1817685218E+01      0.3694807727E+01
          0                 2           2             4    7     1      -0.3357273515E-02       4    7    1        -0.1817702090E+00      0.3694818024E+00
          0                 3           2             4    7     1       0.2286176371E-03       4    7    1         0.1272390416E-01      0.2586372268E-01
          0                 4           1             4    7     1      -0.9096910728E-05       4    7    1        -0.5204084773E-03      0.1057827729E-02

    ------------------------------------------------
       NWT REQUIRED            4 OUTER ITERATIONS 
       AND A TOTAL OF          7 INNER ITERATIONS.
    ------------------------------------------------

 NO OUTPUT CONTROL FOR STRESS PERIOD   48   TIME STEP   10
 
 SOLVING FOR HEAD 
                                                   Max.-Head-Change                         Max.-Flux-Residual
  Residual-Control   Outer-Iter.   Inner-Iter.     Column Row Layer    Maximum-Head-Change  Column Row Layer    Maximum-Flux-Residual          L2-NORM 
          0                 1           2             4    7     1       0.3405069032E-01       4    7    1         0.1793246441E+01      0.3649589538E+01
          0                 2           2             4    7     1      -0.3312227932E-02       4    7    1        -0.1793262914E+00      0.3649599549E+00
          0                 3           2             4    7     1       0.2255502056E-03       4    7    1         0.1255283023E-01      0.2554718548E-01
          0                 4           1             4    7     1      -0.8974854978E-05       4    7    1        -0.5134115472E-03      0.1045065788E-02

    ------------------------------------------------
       NWT REQUIRED            4 OUTER ITERATIONS 
       AND A TOTAL OF          7 INNER ITERATIONS.
    ------------------------------------------------

 NO OUTPUT CONTROL FOR STRESS PERIOD   48   TIME STEP   11
 
 SOLVING FOR HEAD 
                                                   Max.-Head-Change                         Max.-Flux-Residual
  Residual-Control   Outer-Iter.   Inner-Iter.     Column Row Layer    Maximum-Head-Change  Column Row Layer    Maximum-Flux-Residual          L2-NORM 
          0                 1           2             4    7     1       0.3359497823E-01       4    7    1         0.1769192827E+01      0.3605340878E+01
          0                 2           2             4    7     1      -0.3267898998E-02       4    7    1        -0.1769208909E+00      0.3605350595E+00
          0                 3           2             4    7     1       0.2225315750E-03       4    7    1         0.1238445250E-01      0.2523745008E-01
          0                 4           1             4    7     1      -0.8854740511E-05       4    7    1        -0.5065248743E-03      0.1032214739E-02

    ------------------------------------------------
       NWT REQUIRED            4 OUTER ITERATIONS 
       AND A TOTAL OF          7 INNER ITERATIONS.
    ------------------------------------------------

 NO OUTPUT CONTROL FOR STRESS PERIOD   48   TIME STEP   12
 
 SOLVING FOR HEAD 
                                                   Max.-Head-Change                         Max.-Flux-Residual
  Residual-Control   Outer-Iter.   Inner-Iter.     Column Row Layer    Maximum-Head-Change  Column Row Layer    Maximum-Flux-Residual          L2-NORM 
          0                 1           2             4    7     1       0.3314630156E-01       4    7    1         0.1745506666E+01      0.3562032148E+01
          0                 2           2             4    7     1      -0.3224254426E-02       4    7    1        -0.1745522363E+00      0.3562041547E+00
          0                 3           2             4    7     1       0.2195595471E-03       4    7    1         0.1221864697E-01      0.2493428439E-01
          0                 4           1             4    7     1      -0.8736480979E-05       4    7    1        -0.4997434207E-03      0.1019812158E-02

    ------------------------------------------------
       NWT REQUIRED            4 OUTER ITERATIONS 
       AND A TOTAL OF          7 INNER ITERATIONS.
    ------------------------------------------------

 NO OUTPUT CONTROL FOR STRESS PERIOD   48   TIME STEP   13
 
 SOLVING FOR HEAD 
                                                   Max.-Head-Change                         Max.-Flux-Residual
  Residual-Control   Outer-Iter.   Inner-Iter.     Column Row Layer    Maximum-Head-Change  Column Row Layer    Maximum-Flux-Residual          L2-NORM 
          0                 1           2             4    7     1       0.3270486997E-01       4    7    1         0.1722199802E+01      0.3519637998E+01
          0                 2           2             4    7     1      -0.3181314615E-02       4    7    1        -0.1722215121E+00      0.3519647145E+00
          0                 3           2             4    7     1       0.2166355107E-03       4    7    1         0.1205549656E-01      0.2463752624E-01
          0                 4           1             4    7     1      -0.8620130724E-05       4    7    1        -0.4930705704E-03      0.1007679689E-02

    ------------------------------------------------
       NWT REQUIRED            4 OUTER ITERATIONS 
       AND A TOTAL OF          7 INNER ITERATIONS.
    ------------------------------------------------

 NO OUTPUT CONTROL FOR STRESS PERIOD   48   TIME STEP   14
 
 SOLVING FOR HEAD 
                                                   Max.-Head-Change                         Max.-Flux-Residual
  Residual-Control   Outer-Iter.   Inner-Iter.     Column Row Layer    Maximum-Head-Change  Column Row Layer    Maximum-Flux-Residual          L2-NORM 
          0                 1           2             4    7     1       0.3227047403E-01       4    7    1         0.1699261315E+01      0.3478128471E+01
          0                 2           2             4    7     1      -0.3139059190E-02       4    7    1        -0.1699276264E+00      0.3478137280E+00
          0                 3           2             4    7     1       0.2137580782E-03       4    7    1         0.1189492484E-01      0.2434695517E-01
          0                 4           1             4    7     1      -0.8505635289E-05       4    7    1        -0.4865031760E-03      0.9957922388E-03

    ------------------------------------------------
       NWT REQUIRED            4 OUTER ITERATIONS 
       AND A TOTAL OF          7 INNER ITERATIONS.
    ------------------------------------------------

 NO OUTPUT CONTROL FOR STRESS PERIOD   48   TIME STEP   15
 
 SOLVING FOR HEAD 
                                                   Max.-Head-Change                         Max.-Flux-Residual
  Residual-Control   Outer-Iter.   Inner-Iter.     Column Row Layer    Maximum-Head-Change  Column Row Layer    Maximum-Flux-Residual          L2-NORM 
          0                 1           2             4    7     1       0.3184303471E-01       4    7    1         0.1676687611E+01      0.3437472284E+01
          0                 2           2             4    7     1      -0.3097480465E-02       4    7    1        -0.1676702196E+00      0.3437480797E+00
          0                 3           2             4    7     1       0.2109267263E-03       4    7    1         0.1173690663E-01      0.2406235927E-01
          0                 4           1             4    7     1      -0.8392972916E-05       4    7    1        -0.4800402185E-03      0.9841526461E-03

    ------------------------------------------------
       NWT REQUIRED            4 OUTER ITERATIONS 
       AND A TOTAL OF          7 INNER ITERATIONS.
    ------------------------------------------------

 NO OUTPUT CONTROL FOR STRESS PERIOD   48   TIME STEP   16
 
 SOLVING FOR HEAD 
                                                   Max.-Head-Change                         Max.-Flux-Residual
  Residual-Control   Outer-Iter.   Inner-Iter.     Column Row Layer    Maximum-Head-Change  Column Row Layer    Maximum-Flux-Residual          L2-NORM 
          0                 1           2             4    7     1       0.3142274490E-01       4    7    1         0.1654489123E+01      0.3397658090E+01
          0                 2           2             4    7     1      -0.3056596595E-02       4    7    1        -0.1654503352E+00      0.3397359393E+00
          0                 3           2             4    7     1       0.2081426916E-03       4    7    1         0.1158151501E-01      0.2378151348E-01
          0                 4           1             4    7     1      -0.8282193685E-05       4    7    1        -0.4736846959E-03      0.9726716952E-03

    ------------------------------------------------
       NWT REQUIRED            4 OUTER ITERATIONS 
       AND A TOTAL OF          7 INNER ITERATIONS.
    ------------------------------------------------

 NO OUTPUT CONTROL FOR STRESS PERIOD   48   TIME STEP   17
 
 SOLVING FOR HEAD 
                                                   Max.-Head-Change                         Max.-Flux-Residual
  Residual-Control   Outer-Iter.   Inner-Iter.     Column Row Layer    Maximum-Head-Change  Column Row Layer    Maximum-Flux-Residual          L2-NORM 
          0                 1           2             4    7     1       0.3100924605E-01       4    7    1         0.1632646824E+01      0.3358675050E+01
          0                 2           2             4    7     1      -0.3016374530E-02       4    7    1        -0.1632660704E+00      0.3358683185E+00
          0                 3           2             4    7     1       0.2054037229E-03       4    7    1         0.1142861672E-01      0.2351078003E-01
          0                 4           1             4    7     1      -0.8173207567E-05       4    7    1        -0.4674311322E-03      0.9615966623E-03

    ------------------------------------------------
       NWT REQUIRED            4 OUTER ITERATIONS 
       AND A TOTAL OF          7 INNER ITERATIONS.
    ------------------------------------------------

 NO OUTPUT CONTROL FOR STRESS PERIOD   48   TIME STEP   18
 
 SOLVING FOR HEAD 
                                                   Max.-Head-Change                         Max.-Flux-Residual
  Residual-Control   Outer-Iter.   Inner-Iter.     Column Row Layer    Maximum-Head-Change  Column Row Layer    Maximum-Flux-Residual          L2-NORM 
          0                 1           2             4    7     1       0.3060258519E-01       4    7    1         0.1611163822E+01      0.3320497864E+01
          0                 2           2             4    7     1      -0.2976817015E-02       4    7    1        -0.1611177361E+00      0.3320505763E+00
          0                 3           2             4    7     1       0.2027100077E-03       4    7    1         0.1127823360E-01      0.2324353159E-01
          0                 4           1             4    7     1      -0.8066021583E-05       4    7    1        -0.4612804419E-03      0.9506642500E-03

    ------------------------------------------------
       NWT REQUIRED            4 OUTER ITERATIONS 
       AND A TOTAL OF          7 INNER ITERATIONS.
    ------------------------------------------------

 NO OUTPUT CONTROL FOR STRESS PERIOD   48   TIME STEP   19
 
 SOLVING FOR HEAD 
                                                   Max.-Head-Change                         Max.-Flux-Residual
  Residual-Control   Outer-Iter.   Inner-Iter.     Column Row Layer    Maximum-Head-Change  Column Row Layer    Maximum-Flux-Residual          L2-NORM 
          0                 1           2             4    7     1       0.3020253711E-01       4    7    1         0.1590028121E+01      0.3283080741E+01
          0                 2           2             4    7     1      -0.2937902755E-02       4    7    1        -0.1590041325E+00      0.3283088334E+00
          0                 3           2             4    7     1       0.2000600956E-03       4    7    1         0.1113028159E-01      0.2298161298E-01
          0                 4           1             4    7     1      -0.7960579438E-05       4    7    1        -0.4552292094E-03      0.9399495872E-03

    ------------------------------------------------
       NWT REQUIRED            4 OUTER ITERATIONS 
       AND A TOTAL OF          7 INNER ITERATIONS.
    ------------------------------------------------

 NO OUTPUT CONTROL FOR STRESS PERIOD   48   TIME STEP   20
 
 SOLVING FOR HEAD 
                                                   Max.-Head-Change                         Max.-Flux-Residual
  Residual-Control   Outer-Iter.   Inner-Iter.     Column Row Layer    Maximum-Head-Change  Column Row Layer    Maximum-Flux-Residual          L2-NORM 
          0                 1           2             4    7     1       0.2980927973E-01       4    7    1         0.1569249814E+01      0.3246411672E+01
          0                 2           2             4    7     1      -0.2899649056E-02       4    7    1        -0.1569262692E+00      0.3246418944E+00
          0                 3           2             4    7     1       0.1974551652E-03       4    7    1         0.1098483139E-01      0.2272491460E-01
          0                 4           1             4    7     1      -0.7856926836E-05       4    7    1        -0.4492802964E-03      0.9294475828E-03

    ------------------------------------------------
       NWT REQUIRED            4 OUTER ITERATIONS 
       AND A TOTAL OF          7 INNER ITERATIONS.
    ------------------------------------------------

 NO OUTPUT CONTROL FOR STRESS PERIOD   48   TIME STEP   21
 
 SOLVING FOR HEAD 
                                                   Max.-Head-Change                         Max.-Flux-Residual
  Residual-Control   Outer-Iter.   Inner-Iter.     Column Row Layer    Maximum-Head-Change  Column Row Layer    Maximum-Flux-Residual          L2-NORM 
          0                 1           2             4    7     1       0.2942257736E-01       4    7    1         0.1548816323E+01      0.3210467458E+01
          0                 2           2             4    7     1      -0.2862032991E-02       4    7    1        -0.1548828882E+00      0.3210474488E+00
          0                 3           2             4    7     1       0.1948936554E-03       4    7    1         0.1084179497E-01      0.2247331213E-01
          0                 4           1             4    7     1      -0.7755001953E-05       4    7    1        -0.4434300904E-03      0.9191582341E-03

    ------------------------------------------------
       NWT REQUIRED            4 OUTER ITERATIONS 
       AND A TOTAL OF          7 INNER ITERATIONS.
    ------------------------------------------------

 NO OUTPUT CONTROL FOR STRESS PERIOD   48   TIME STEP   22
 
 SOLVING FOR HEAD 
                                                   Max.-Head-Change                         Max.-Flux-Residual
  Residual-Control   Outer-Iter.   Inner-Iter.     Column Row Layer    Maximum-Head-Change  Column Row Layer    Maximum-Flux-Residual          L2-NORM 
          0                 1           2             4    7     1       0.2904246763E-01       4    7    1         0.1528729964E+01      0.3175227205E+01
          0                 2           2             4    7     1      -0.2825058221E-02       4    7    1        -0.1528742211E+00      0.3175233981E+00
          0                 3           2             4    7     1       0.1923758151E-03       4    7    1         0.1070118852E-01      0.2222662910E-01
          0                 4           1             4    7     1      -0.7654814577E-05       4    7    1        -0.4376792767E-03      0.9090767116E-03

    ------------------------------------------------
       NWT REQUIRED            4 OUTER ITERATIONS 
       AND A TOTAL OF          7 INNER ITERATIONS.
    ------------------------------------------------

 NO OUTPUT CONTROL FOR STRESS PERIOD   48   TIME STEP   23
 
 SOLVING FOR HEAD 
                                                   Max.-Head-Change                         Max.-Flux-Residual
  Residual-Control   Outer-Iter.   Inner-Iter.     Column Row Layer    Maximum-Head-Change  Column Row Layer    Maximum-Flux-Residual          L2-NORM 
          0                 1           2             4    7     1       0.2866857495E-01       4    7    1         0.1508970883E+01      0.3140667569E+01
          0                 2           2             4    7     1      -0.2788688212E-02       4    7    1        -0.1508982826E+00      0.3140674095E+00
          0                 3           2             4    7     1       0.1898991567E-03       4    7    1         0.1056287305E-01      0.2198470766E-01
          0                 4           1             4    7     1      -0.7556265811E-05       4    7    1        -0.4320221560E-03      0.8991746930E-03

    ------------------------------------------------
       NWT REQUIRED            4 OUTER ITERATIONS 
       AND A TOTAL OF          7 INNER ITERATIONS.
    ------------------------------------------------

 NO OUTPUT CONTROL FOR STRESS PERIOD   48   TIME STEP   24
 
 SOLVING FOR HEAD 
                                                   Max.-Head-Change                         Max.-Flux-Residual
  Residual-Control   Outer-Iter.   Inner-Iter.     Column Row Layer    Maximum-Head-Change  Column Row Layer    Maximum-Flux-Residual          L2-NORM 
          0                 1           2             4    7     1       0.2830107584E-01       4    7    1         0.1489548682E+01      0.3106777514E+01
          0                 2           2             4    7     1      -0.2752940132E-02       4    7    1        -0.1489560328E+00      0.3106783762E+00
          0                 3           2             4    7     1       0.1874648493E-03       4    7    1         0.1042691578E-01      0.2174747137E-01
          0                 4           1             4    7     1      -0.7459402744E-05       4    7    1        -0.4264615054E-03      0.8894715550E-03

    ------------------------------------------------
       NWT REQUIRED            4 OUTER ITERATIONS 
       AND A TOTAL OF          7 INNER ITERATIONS.
    ------------------------------------------------

 NO OUTPUT CONTROL FOR STRESS PERIOD   48   TIME STEP   25
 
 SOLVING FOR HEAD 
                                                   Max.-Head-Change                         Max.-Flux-Residual
  Residual-Control   Outer-Iter.   Inner-Iter.     Column Row Layer    Maximum-Head-Change  Column Row Layer    Maximum-Flux-Residual          L2-NORM 
          0                 1           2             4    7     1       0.2793986081E-01       4    7    1         0.1470457974E+01      0.3073535681E+01
          0                 2           2             4    7     1      -0.2717803333E-02       4    7    1        -0.1470469330E+00      0.3073541680E+00
          0                 3           2             4    7     1       0.1850721675E-03       4    7    1         0.1029327902E-01      0.2151477654E-01
          0                 4           1             4    7     1      -0.7364195212E-05       4    7    1        -0.4209957360E-03      0.8799547460E-03

    ------------------------------------------------
       NWT REQUIRED            4 OUTER ITERATIONS 
       AND A TOTAL OF          7 INNER ITERATIONS.
    ------------------------------------------------

 NO OUTPUT CONTROL FOR STRESS PERIOD   48   TIME STEP   26
 
 SOLVING FOR HEAD 
                                                   Max.-Head-Change                         Max.-Flux-Residual
  Residual-Control   Outer-Iter.   Inner-Iter.     Column Row Layer    Maximum-Head-Change  Column Row Layer    Maximum-Flux-Residual          L2-NORM 
          0                 1           2             4    7     1       0.2758469136E-01       4    7    1         0.1451685815E+01      0.3040925636E+01
          0                 2           2             4    7     1      -0.2683254615E-02       4    7    1        -0.1451696888E+00      0.3040931426E+00
          0                 3           2             4    7     1       0.1827195323E-03       4    7    1         0.1016187214E-01      0.2128650789E-01
          0                 4           1             4    7     1      -0.7270582197E-05       4    7    1        -0.4156212030E-03      0.8706185842E-03

    ------------------------------------------------
       NWT REQUIRED            4 OUTER ITERATIONS 
       AND A TOTAL OF          7 INNER ITERATIONS.
    ------------------------------------------------

 NO OUTPUT CONTROL FOR STRESS PERIOD   48   TIME STEP   27
 
 SOLVING FOR HEAD 
                                                   Max.-Head-Change                         Max.-Flux-Residual
  Residual-Control   Outer-Iter.   Inner-Iter.     Column Row Layer    Maximum-Head-Change  Column Row Layer    Maximum-Flux-Residual          L2-NORM 
          0                 1           2             4    7     1       0.2723560143E-01       4    7    1         0.1433234377E+01      0.3008933529E+01
          0                 2           2             4    7     1      -0.2649297277E-02       4    7    1        -0.1433245174E+00      0.3008939060E+00
          0                 3           2             4    7     1       0.1804071675E-03       4    7    1         0.1003271034E-01      0.2106256149E-01
          0                 4           1             4    7     1      -0.7178571068E-05       4    7    1        -0.4103384845E-03      0.8614604326E-03

    ------------------------------------------------
       NWT REQUIRED            4 OUTER ITERATIONS 
       AND A TOTAL OF          7 INNER ITERATIONS.
    ------------------------------------------------

 NO OUTPUT CONTROL FOR STRESS PERIOD   48   TIME STEP   28
 
 SOLVING FOR HEAD 
                                                   Max.-Head-Change                         Max.-Flux-Residual
  Residual-Control   Outer-Iter.   Inner-Iter.     Column Row Layer    Maximum-Head-Change  Column Row Layer    Maximum-Flux-Residual          L2-NORM 
          0                 1           2             4    7     1       0.2689234845E-01       4    7    1         0.1415090879E+01      0.2977533630E+01
          0                 2           2             4    7     1      -0.2615907726E-02       4    7    1        -0.1415101407E+00      0.2977538876E+00
          0                 3           2             4    7     1       0.1781334664E-03       4    7    1         0.9905704156E-02      0.2084275184E-01
          0                 4           1             4    7     1      -0.7088098158E-05       4    7    1        -0.4051439214E-03      0.8524698898E-03

    ------------------------------------------------
       NWT REQUIRED            4 OUTER ITERATIONS 
       AND A TOTAL OF          7 INNER ITERATIONS.
    ------------------------------------------------

 NO OUTPUT CONTROL FOR STRESS PERIOD   48   TIME STEP   29
 
 SOLVING FOR HEAD 
                                                   Max.-Head-Change                         Max.-Flux-Residual
  Residual-Control   Outer-Iter.   Inner-Iter.     Column Row Layer    Maximum-Head-Change  Column Row Layer    Maximum-Flux-Residual          L2-NORM 
          0                 1           2             4    7     1       0.2655509993E-01       4    7    1         0.1397264559E+01      0.2946722989E+01
          0                 2           2             4    7     1      -0.2583102256E-02       4    7    1        -0.1397274825E+00      0.2946728050E+00
          0                 3           2             4    7     1       0.1758995390E-03       4    7    1         0.9780918265E-02      0.2062708479E-01
          0                 4           1             4    7     1      -0.6999208138E-05       4    7    1        -0.4000401641E-03      0.8436512992E-03

    ------------------------------------------------
       NWT REQUIRED            4 OUTER ITERATIONS 
       AND A TOTAL OF          7 INNER ITERATIONS.
    ------------------------------------------------

 NO OUTPUT CONTROL FOR STRESS PERIOD   48   TIME STEP   30



 STREAM LISTING     PERIOD     48   STEP       30

 LAYER ROW COL. STREAM  RCH.  FLOW INTO     FLOW TO   FLOW OUT OF   OVRLND.     DIRECT     STREAM       STREAM     STREAM     STREAM   STREAMBED  STREAMBED
                SEG.NO.  NO.  STRM. RCH.    AQUIFER    STRM. RCH.    RUNOFF     PRECIP       ET          HEAD       DEPTH      WIDTH   CONDCTNC.   GRADIENT

   1    1    1     1     1    7.8748E+00  1.2804E-01   7.7467E+00  0.000E+00  0.000E+00  0.000E+00  1.09388E+03  8.295E-01  7.430E+00  3.344E-02  1.276E+00
   1    2    2     1     2    7.7467E+00  1.9662E-01   7.5501E+00  0.000E+00  0.000E+00  0.000E+00  1.08888E+03  8.237E-01  7.346E+00  5.142E-02  1.275E+00
   1    3    3     1     3    7.5501E+00  1.6606E-01   7.3840E+00  0.000E+00  0.000E+00  0.000E+00  1.08324E+03  8.172E-01  7.251E+00  4.350E-02  1.272E+00
   1    3    4     1     4    7.3840E+00  1.5159E-01   7.2324E+00  0.000E+00  0.000E+00  0.000E+00  1.07822E+03  8.115E-01  7.166E+00  3.977E-02  1.270E+00
   1    4    5     2     1    5.2324E+00  2.7028E-01   4.9622E+00  0.000E+00  0.000E+00  0.000E+00  1.07240E+03  4.651E-01  1.200E+01  7.800E-02  1.155E+00
   1    5    6     2     2    4.9622E+00  2.0711E-01   4.7551E+00  0.000E+00  0.000E+00  0.000E+00  1.06696E+03  4.519E-01  1.200E+01  6.000E-02  1.151E+00
   1    6    6     2     3    4.7551E+00  2.0642E-01   4.5486E+00  0.000E+00  0.000E+00  0.000E+00  1.06223E+03  4.403E-01  1.200E+01  6.000E-02  1.147E+00
   1    7    6     2     4    4.5486E+00  2.0571E-01   4.3429E+00  0.000E+00  0.000E+00  0.000E+00  1.05750E+03  4.285E-01  1.200E+01  6.000E-02  1.143E+00
   1    8    6     2     5    4.3429E+00  2.0499E-01   4.1379E+00  0.000E+00  0.000E+00  0.000E+00  1.05278E+03  4.165E-01  1.200E+01  6.000E-02  1.139E+00
   1    3    5     3     1    2.0000E+00  2.8252E-01   1.7175E+00  0.000E+00  0.000E+00  0.000E+00  1.07555E+03  1.909E+00  9.636E+00  7.227E-02  1.955E+00
   1    3    6     3     2    1.7175E+00  2.4905E-01   1.4684E+00  0.000E+00  0.000E+00  0.000E+00  1.07264E+03  1.727E+00  8.909E+00  6.682E-02  1.864E+00
   1    3    7     3     3    1.4684E+00  1.9718E-01   1.2712E+00  0.000E+00  0.000E+00  0.000E+00  1.06987E+03  1.555E+00  8.218E+00  5.547E-02  1.777E+00
   1    4    8     3     4    1.2712E+00  2.2567E-01   1.0456E+00  0.000E+00  0.000E+00  0.000E+00  1.06682E+03  1.364E+00  7.455E+00  6.709E-02  1.682E+00
   1    5    8     3     5    1.0456E+00  1.5790E-01   8.8768E-01  0.000E+00  0.000E+00  0.000E+00  1.06362E+03  1.164E+00  6.655E+00  4.991E-02  1.582E+00
   1    6    8     3     6    8.8768E-01  5.5980E-02   8.3170E-01  0.000E+00  0.000E+00  0.000E+00  1.06158E+03  1.036E+00  6.145E+00  1.844E-02  1.518E+00
   1    5   10     4     1    1.0000E+01  9.0919E-02   9.9091E+00  0.000E+00  0.000E+00  0.000E+00  1.07836E+03  6.368E-01  1.000E+01  2.500E-02  1.212E+00
   1    5    9     4     2    9.9091E+00  1.8158E-01   9.7275E+00  0.000E+00  0.000E+00  0.000E+00  1.07154E+03  6.315E-01  1.000E+01  5.000E-02  1.211E+00
   1    6    8     4     3    9.7275E+00  1.2689E-01   9.6006E+00  0.000E+00  0.000E+00  0.000E+00  1.06381E+03  6.256E-01  1.000E+01  3.500E-02  1.209E+00
   1    6    8     5     1    1.0432E+01  2.2686E-01   1.0205E+01  0.000E+00  0.000E+00  0.000E+00  1.05868E+03  6.790E-01  1.542E+01  6.166E-02  1.226E+00
   1    7    7     5     2    1.0205E+01  2.7894E-01   9.9265E+00  0.000E+00  0.000E+00  0.000E+00  1.05417E+03  6.732E-01  1.519E+01  7.594E-02  1.224E+00
   1    8    7     5     3    9.9265E+00  1.9221E-01   9.7343E+00  0.000E+00  0.000E+00  0.000E+00  1.04992E+03  6.676E-01  1.497E+01  5.241E-02  1.223E+00
   1    8    6     5     4    9.7343E+00  1.3577E-01   9.5985E+00  0.000E+00  0.000E+00  0.000E+00  1.04691E+03  6.637E-01  1.482E+01  3.706E-02  1.221E+00
   1    9    6     6     1    1.3736E+01  2.3089E-01   1.3506E+01  0.000E+00  0.000E+00  0.000E+00  1.04358E+03  8.482E-01  1.200E+01  6.000E-02  1.283E+00
   1   10    7     6     2    1.3506E+01  2.3037E-01   1.3275E+01  0.000E+00  0.000E+00  0.000E+00  1.03902E+03  8.396E-01  1.200E+01  6.000E-02  1.280E+00
   1   11    7     6     3    1.3275E+01  2.2985E-01   1.3045E+01  0.000E+00  0.000E+00  0.000E+00  1.03447E+03  8.309E-01  1.200E+01  6.000E-02  1.277E+00
   1   12    7     6     4    1.3045E+01  2.2933E-01   1.2816E+01  0.000E+00  0.000E+00  0.000E+00  1.02991E+03  8.221E-01  1.200E+01  6.000E-02  1.274E+00
   1   13    7     6     5    1.2816E+01  8.3111E-03   1.2808E+01  0.000E+00  0.000E+00  0.000E+00  1.02673E+03  8.176E-01  1.200E+01  2.400E-02  1.154E-01
   1   14    9     7     1    1.5000E+02  1.4124E+00   1.4859E+02  0.000E+00  0.000E+00  0.000E+00  1.03987E+03  2.288E+00  5.529E+01  5.593E-01  8.418E-01
   1   13    8     7     2    1.4859E+02  2.0657E+00   1.4652E+02  0.000E+00  0.000E+00  0.000E+00  1.03478E+03  2.278E+00  5.525E+01  6.147E-01  1.120E+00
   1   13    7     7     3    1.4652E+02  1.8462E+00   1.4468E+02  0.000E+00  0.000E+00  0.000E+00  1.02969E+03  2.268E+00  5.521E+01  5.583E-01  1.102E+00
   1   13    6     8     1    1.5748E+02  1.2115E+00   1.5627E+02  0.000E+00  0.000E+00  0.000E+00  1.02474E+03  2.865E+00  4.154E+01  4.233E-01  9.541E-01
   1   13    5     8     2    1.5627E+02  4.5050E-01   1.5582E+02  0.000E+00  0.000E+00  0.000E+00  1.01848E+03  2.859E+00  4.145E+01  4.224E-01  3.555E-01
   1   13    4     8     3    1.5582E+02 -1.4892E+00   1.5731E+02  0.000E+00  0.000E+00  0.000E+00  1.01224E+03  2.862E+00  4.151E+01  4.230E+00 -1.174E-01
   1   13    3     8     4    1.5731E+02 -3.1759E+00   1.6049E+02  0.000E+00  0.000E+00  0.000E+00  1.00600E+03  2.878E+00  4.174E+01  4.253E+00 -2.489E-01
   1   13    2     8     5    1.6049E+02 -2.4564E+00   1.6294E+02  0.000E+00  0.000E+00  0.000E+00  9.99772E+02  2.897E+00  4.201E+01  4.281E+00 -1.913E-01
   1   13    1     8     6    1.6294E+02 -1.9468E+00   1.6489E+02  0.000E+00  0.000E+00  0.000E+00  9.94787E+02  2.912E+00  4.223E+01  2.582E+00 -2.514E-01
   1    8    6     9     1    0.0000E+00  0.0000E+00   0.0000E+00  0.000E+00  0.000E+00  0.000E+00  1.07875E+03  0.000E+00  4.000E+00  0.000E+00  1.000E+00
   1    8    5     9     2    0.0000E+00  0.0000E+00   0.0000E+00  0.000E+00  0.000E+00  0.000E+00  1.07825E+03  0.000E+00  4.000E+00  0.000E+00  1.000E+00





UNSATURATED ZONE PACKAGE VOLUMETRIC BUDGET FOR  TIME STEP    30 STRESS PERIOD   48
  ------------------------------------------------------------------------------



     CUMULATIVE VOLUMES      L**3       RATES FOR THIS TIME STEP      L**3/T
     ------------------                 ------------------------

           IN:                                      IN:
           ---                                      ---
        INFILTRATION =  2189945467.7300          INFILTRATION =           0.8475

          OUT:                                     OUT:
          ----                                     ----
              UZF ET =  1705715358.6782                UZF ET =           0.7500
        UZF RECHARGE =    89935077.6917          UZF RECHARGE =       0.0000E+00

            IN - OUT =   394295031.3602              IN - OUT =       9.7500E-02

          STORAGE:                                 STORAGE:
          --------                                 --------
      STORAGE CHANGE =   394304849.5543        STORAGE CHANGE =       9.7500E-02

 PERCENT DISCREPANCY IS DIFFERENCE BETWEEN IN-OUT MINUS CHANGE IN STORAGE
 DIVIDED BY THE AVERAGE OF IN AND OUT TIMES 100

 PERCENT DISCREPANCY =          -0.00     PERCENT DISCREPANCY =           0.00






1
  VOLUMETRIC BUDGET FOR AGRICULTURAL FIELDS AT  END OF TIME STEP   30, STRESS PERIOD  48
  ------------------------------------------------------------------------------

     CUMULATIVE VOLUMES      L**3       RATES FOR THIS TIME STEP      L**3/T
     ------------------                 ------------------------

           IN:                                      IN:
           ---                                      ---
               AG WELLS  =  1373766400.0000                 AG WELLS  =           0.0000
      DIVERSION SEGMENTS =   711589504.0000        DIVERSION SEGMENTS =           0.0000
       IRRIGATION PONDS  =           0.0000         IRRIGATION PONDS  =           0.0000
           GW IRRIGATION =           0.0000             GW IRRIGATION =           0.0000
           SW IRRIGATION =           0.0000             SW IRRIGATION =           0.0000
        SYSTEM LOSSES GW =           0.0000          SYSTEM LOSSES GW =           0.0000
        SYSTEM LOSSES SW =           0.0000          SYSTEM LOSSES SW =           0.0000

                TOTAL IN =  2085355904.0000                  TOTAL IN =           0.0000

          OUT:                                     OUT:
          ----                                     ----
               AG WELLS  =           0.0000                 AG WELLS  =           0.0000
      DIVERSION SEGMENTS =           0.0000        DIVERSION SEGMENTS =           0.0000
       IRRIGATION PONDS  =           0.0000         IRRIGATION PONDS  =           0.0000
           GW IRRIGATION =  1373766400.0000             GW IRRIGATION =           0.0000
           SW IRRIGATION =   711603392.0000             SW IRRIGATION =           0.0000
        SYSTEM LOSSES GW =           0.0000          SYSTEM LOSSES GW =           0.0000
        SYSTEM LOSSES SW =           0.0000          SYSTEM LOSSES SW =           0.0000

               TOTAL OUT =  2085369856.0000                 TOTAL OUT =           0.0000

                IN - OUT =      -13952.0000                  IN - OUT =           0.0000

     PERCENT DISCREPANCY =          -0.00         PERCENT DISCREPANCY =           0.00



1
  VOLUMETRIC BUDGET FOR ENTIRE MODEL AT END OF TIME STEP   30, STRESS PERIOD  48
  ------------------------------------------------------------------------------

     CUMULATIVE VOLUMES      L**3       RATES FOR THIS TIME STEP      L**3/T
     ------------------                 ------------------------

           IN:                                      IN:
           ---                                      ---
             STORAGE     =  2055504384.0000               STORAGE     =           6.1319
       CONSTANT HEAD     =           0.0000         CONSTANT HEAD     =           0.0000
     HEAD DEP BOUNDS     =    35751292.0000       HEAD DEP BOUNDS     =           0.2910
      STREAM LEAKAGE     =  1493622016.0000        STREAM LEAKAGE     =          12.0534
        UZF RECHARGE     =    89935088.0000          UZF RECHARGE     =           0.0000
               GW ET     =           0.0000                 GW ET     =           0.0000
     SURFACE LEAKAGE     =           0.0000       SURFACE LEAKAGE     =           0.0000
           AG WELLS      =           0.0000             AG WELLS      =           0.0000

                TOTAL IN =  3674812672.0000                  TOTAL IN =          18.4763

          OUT:                                     OUT:
          ----                                     ----
             STORAGE     =  1066327104.0000               STORAGE     =           9.1214
       CONSTANT HEAD     =           0.0000         CONSTANT HEAD     =           0.0000
     HEAD DEP BOUNDS     =    35583160.0000       HEAD DEP BOUNDS     =           0.2866
      STREAM LEAKAGE     =  1199099648.0000        STREAM LEAKAGE     =           9.0683
        UZF RECHARGE     =           0.0000          UZF RECHARGE     =           0.0000
               GW ET     =           0.0000                 GW ET     =           0.0000
     SURFACE LEAKAGE     =           0.0000       SURFACE LEAKAGE     =           0.0000
           AG WELLS      =  1373766400.0000             AG WELLS      =           0.0000

               TOTAL OUT =  3674776320.0000                 TOTAL OUT =          18.4763

                IN - OUT =       36352.0000                  IN - OUT =       1.5259E-05

     PERCENT DISCREPANCY =           0.00         PERCENT DISCREPANCY =           0.00






         TIME SUMMARY AT END OF TIME STEP   30 IN STRESS PERIOD   48
                    SECONDS     MINUTES      HOURS       DAYS        YEARS
                    -----------------------------------------------------------
   TIME STEP LENGTH  87667.      1461.1      24.352      1.0147     2.77799E-03
 STRESS PERIOD TIME 2.63000E+06  43833.      730.56      30.440     8.33397E-02
         TOTAL TIME 1.23695E+08 2.06158E+06  34360.      1431.7      3.9197    
1
1
                            STRESS PERIOD NO.   49, LENGTH =   2630000.    
                            -----------------------------------------------

                              NUMBER OF TIME STEPS =    30

                               MULTIPLIER FOR DELT =     1.000

                            INITIAL TIME STEP SIZE =   87666.66    

 REUSING NON-PARAMETER GHB CELLS FROM LAST STRESS PERIOD

      2 GHB CELLS

 REUSING STREAM SEGMENT DATA FROM LAST STRESS PERIOD



            AREAL INFILTRATION RATE
 READING ON UNIT   19 WITH FORMAT: (FREE)              

            1           2           3           4           5           6           7           8           9          10
 ........................................................................................................................
   1   1.0000E-10  2.0000E-10   0.000       0.000       0.000       0.000       0.000       0.000       0.000       0.000    
   2   2.0000E-10  1.0000E-10  2.0000E-10   0.000       0.000      8.0000E-10  8.0000E-10  5.0000E-10   0.000       0.000    
   3    0.000      5.0000E-10  1.0000E-10  1.0000E-10  8.0000E-10  8.0000E-10  5.0000E-10  5.0000E-10   0.000       0.000    
   4   8.0000E-10  5.0000E-10  1.0000E-10  1.0000E-10  1.0000E-10  1.0000E-10  1.0000E-10  1.0000E-10  2.0000E-10   0.000    
   5   8.0000E-10  5.0000E-10  1.0000E-10  1.0000E-10  1.0000E-10  1.0000E-10  1.0000E-10  1.0000E-10  1.0000E-10  1.0000E-10
   6   8.0000E-10  5.0000E-10  5.0000E-10  2.0000E-10  2.0000E-10  1.0000E-10  1.0000E-10  1.0000E-10  1.0000E-10  5.0000E-10
   7   8.0000E-10  5.0000E-10  5.0000E-10  2.0000E-10  2.0000E-10  1.0000E-10  1.0000E-10  2.0000E-10  2.0000E-10   0.000    
   8    0.000      5.0000E-10  5.0000E-10  2.0000E-10  2.0000E-10  1.0000E-10  1.0000E-10  2.0000E-10  5.0000E-10   0.000    
   9    0.000      5.0000E-10  5.0000E-10  2.0000E-10  2.0000E-10  1.0000E-10  1.0000E-10  2.0000E-10  5.0000E-10   0.000    
  10    0.000      5.0000E-10  5.0000E-10  2.0000E-10  2.0000E-10  1.0000E-10  1.0000E-10  2.0000E-10  5.0000E-10  8.0000E-10
  11    0.000      1.0000E-10  1.0000E-10  1.0000E-10  1.0000E-10  1.0000E-10  1.0000E-10  2.0000E-10  5.0000E-10   0.000    
  12   1.0000E-10  1.0000E-10  1.0000E-10  1.0000E-10  1.0000E-10  1.0000E-10  1.0000E-10  1.0000E-10  2.0000E-10   0.000    
  13   1.0000E-10  1.0000E-10  2.0000E-10  2.0000E-10  2.0000E-10  2.0000E-10  2.0000E-10  1.0000E-10  1.0000E-10   0.000    
  14    0.000      2.0000E-10  5.0000E-10  5.0000E-10  5.0000E-10  5.0000E-10  5.0000E-10  2.0000E-10  1.0000E-10   0.000    
  15    0.000       0.000      8.0000E-10  8.0000E-10  8.0000E-10  8.0000E-10   0.000       0.000       0.000       0.000    

                  ET RATE =  5.000000E-10

 USING ET EXTINCTION DEPTH FROM PREVIOUS STRESS PERIOD. CURRENT PERIOD IS:      49

 USING EXTINCTION WATER CONTENT FROM PREVIOUS STRESS PERIOD. CURRENT PERIOD IS:      49

 USING AIR ENTRY PRESSURE FROM PREVIOUS STRESS PERIOD. CURRENT PERIOD IS:      49

 USING ROOT PRESSURE HEAD FROM PREVIOUS STRESS PERIOD. CURRENT PERIOD IS:      49

 USING ROOT ACTIVITY FROM PREVIOUS STRESS PERIOD. CURRENT PERIOD IS:      49

 PROCESSING AG STRESS PERIOD DATA

 READING AG STRESS PERIOD DATA

 READING IRRIGATION SEGMENT

 READING IRRIGATION WELL

 READING SUPPLEMENTAL WELL

 NO IRRPOND OR REUSING IRRPOND DATA FROM LAST STRESS PERIOD

 END PROCESSING AG STRESS PERIOD DATA OPTIONS
 
 SOLVING FOR HEAD 
                                                   Max.-Head-Change                         Max.-Flux-Residual
  Residual-Control   Outer-Iter.   Inner-Iter.     Column Row Layer    Maximum-Head-Change  Column Row Layer    Maximum-Flux-Residual          L2-NORM 
          0                 1           2             4    7     1       0.2622347777E-01       4    7    1         0.1379735016E+01      0.2916480823E+01
          0                 2           2             4    7     1      -0.2550844087E-02       4    7    1        -0.1379745026E+00      0.2916485615E+00
          0                 3           2             4    7     1       0.1737028815E-03       4    7    1         0.9658209891E-02      0.2041538119E-01
          0                 4           1             4    7     1      -0.6911800846E-05       4    7    1        -0.3950213822E-03      0.8349810745E-03

    ------------------------------------------------
       NWT REQUIRED            4 OUTER ITERATIONS 
       AND A TOTAL OF          7 INNER ITERATIONS.
    ------------------------------------------------

 NO OUTPUT CONTROL FOR STRESS PERIOD   49   TIME STEP    1
 
 SOLVING FOR HEAD 
                                                   Max.-Head-Change                         Max.-Flux-Residual
  Residual-Control   Outer-Iter.   Inner-Iter.     Column Row Layer    Maximum-Head-Change  Column Row Layer    Maximum-Flux-Residual          L2-NORM 
          0                 1           2             4    7     1       0.2589764661E-01       4    7    1         0.1362511733E+01      0.2886791047E+01
          0                 2           2             4    7     1      -0.2519149233E-02       4    7    1        -0.1362521494E+00      0.2886795620E+00
          0                 3           2             4    7     1       0.1715445826E-03       4    7    1         0.9537645333E-02      0.2020755177E-01
          0                 4           1             4    7     1      -0.6825920261E-05       4    7    1        -0.3900902793E-03      0.8265355057E-03

    ------------------------------------------------
       NWT REQUIRED            4 OUTER ITERATIONS 
       AND A TOTAL OF          7 INNER ITERATIONS.
    ------------------------------------------------

 NO OUTPUT CONTROL FOR STRESS PERIOD   49   TIME STEP    2
 
 SOLVING FOR HEAD 
                                                   Max.-Head-Change                         Max.-Flux-Residual
  Residual-Control   Outer-Iter.   Inner-Iter.     Column Row Layer    Maximum-Head-Change  Column Row Layer    Maximum-Flux-Residual          L2-NORM 
          0                 1           2             4    7     1       0.2557736597E-01       4    7    1         0.1345581430E+01      0.2857648407E+01
          0                 2           2             4    7     1      -0.2487994293E-02       4    7    1        -0.1345590948E+00      0.2857581405E+00
          0                 3           2             4    7     1       0.1694230504E-03       4    7    1         0.9419131691E-02      0.2000305125E-01
          0                 4           1             4    7     1      -0.6741502718E-05       4    7    1        -0.3852430800E-03      0.8181215200E-03

    ------------------------------------------------
       NWT REQUIRED            4 OUTER ITERATIONS 
       AND A TOTAL OF          7 INNER ITERATIONS.
    ------------------------------------------------

 NO OUTPUT CONTROL FOR STRESS PERIOD   49   TIME STEP    3
 
 SOLVING FOR HEAD 
                                                   Max.-Head-Change                         Max.-Flux-Residual
  Residual-Control   Outer-Iter.   Inner-Iter.     Column Row Layer    Maximum-Head-Change  Column Row Layer    Maximum-Flux-Residual          L2-NORM 
          0                 1           2             4    7     1       0.2526252968E-01       4    7    1         0.1328938912E+01      0.2829447592E+01
          0                 2           2             4    7     1      -0.2457368969E-02       4    7    1        -0.1328948193E+00      0.2829449087E+00
          0                 3           2             4    7     1       0.1673375826E-03       4    7    1         0.9302632574E-02      0.1980610384E-01
          0                 4           1             4    7     1      -0.6658519549E-05       4    7    1        -0.3804782441E-03      0.8100665877E-03

    ------------------------------------------------
       NWT REQUIRED            4 OUTER ITERATIONS 
       AND A TOTAL OF          7 INNER ITERATIONS.
    ------------------------------------------------

 NO OUTPUT CONTROL FOR STRESS PERIOD   49   TIME STEP    4
 
 SOLVING FOR HEAD 
                                                   Max.-Head-Change                         Max.-Flux-Residual
  Residual-Control   Outer-Iter.   Inner-Iter.     Column Row Layer    Maximum-Head-Change  Column Row Layer    Maximum-Flux-Residual          L2-NORM 
          0                 1           2             4    7     1       0.2495302878E-01       4    7    1         0.1312578672E+01      0.2801743168E+01
          0                 2           2             4    7     1      -0.2427262632E-02       4    7    1        -0.1312587723E+00      0.2801741358E+00
          0                 3           2             4    7     1       0.1652874563E-03       4    7    1         0.9188109475E-02      0.1961210895E-01
          0                 4           1             4    7     1      -0.6576943125E-05       4    7    1        -0.3757942404E-03      0.8021291469E-03

    ------------------------------------------------
       NWT REQUIRED            4 OUTER ITERATIONS 
       AND A TOTAL OF          7 INNER ITERATIONS.
    ------------------------------------------------

 NO OUTPUT CONTROL FOR STRESS PERIOD   49   TIME STEP    5
 
 SOLVING FOR HEAD 
                                                   Max.-Head-Change                         Max.-Flux-Residual
  Residual-Control   Outer-Iter.   Inner-Iter.     Column Row Layer    Maximum-Head-Change  Column Row Layer    Maximum-Flux-Residual          L2-NORM 
          0                 1           2             4    7     1       0.2464889902E-01       4    7    1         0.1296502337E+01      0.2774146104E+01
          0                 2           2             4    7     1      -0.2397679376E-02       4    7    1        -0.1296511164E+00      0.2774520053E+00
          0                 3           2             4    7     1       0.1632729493E-03       4    7    1         0.9075573719E-02      0.1942156369E-01
          0                 4           1             4    7     1      -0.6496784037E-05       4    7    1        -0.3711915133E-03      0.7943347856E-03

    ------------------------------------------------
       NWT REQUIRED            4 OUTER ITERATIONS 
       AND A TOTAL OF          7 INNER ITERATIONS.
    ------------------------------------------------

 NO OUTPUT CONTROL FOR STRESS PERIOD   49   TIME STEP    6
 
 SOLVING FOR HEAD 
                                                   Max.-Head-Change                         Max.-Flux-Residual
  Residual-Control   Outer-Iter.   Inner-Iter.     Column Row Layer    Maximum-Head-Change  Column Row Layer    Maximum-Flux-Residual          L2-NORM 
          0                 1           2             4    7     1       0.2434989804E-01       4    7    1         0.1280697179E+01      0.2747005462E+01
          0                 2           2             4    7     1      -0.2368593807E-02       4    7    1        -0.1280705788E+00      0.2747004274E+00
          0                 3           2             4    7     1       0.1612923331E-03       4    7    1         0.8964936250E-02      0.1922897963E-01
          0                 4           1             4    7     1      -0.6417973783E-05       4    7    1        -0.3666664388E-03      0.7864635554E-03

    ------------------------------------------------
       NWT REQUIRED            4 OUTER ITERATIONS 
       AND A TOTAL OF          7 INNER ITERATIONS.
    ------------------------------------------------

 NO OUTPUT CONTROL FOR STRESS PERIOD   49   TIME STEP    7
 
 SOLVING FOR HEAD 
                                                   Max.-Head-Change                         Max.-Flux-Residual
  Residual-Control   Outer-Iter.   Inner-Iter.     Column Row Layer    Maximum-Head-Change  Column Row Layer    Maximum-Flux-Residual          L2-NORM 
          0                 1           2             4    7     1       0.2405630159E-01       4    7    1         0.1265158004E+01      0.2734149850E+01
          0                 2           2             5    8     1       0.2999769157E-02       5    8    1         0.1697868900E+00      0.3105369367E+00
          0                 3           2             5    8     1       0.5601253514E-03       5    8    1         0.3063336545E-01      0.3567183996E-01
          0                 4           1             5    8     1       0.1045881832E-03       5    8    1         0.5785436181E-02      0.5830134359E-02
          0                 5           1             5    8     1       0.1952900153E-04       5    8    1         0.1077758115E-02      0.1077953963E-02

    ------------------------------------------------
       NWT REQUIRED            5 OUTER ITERATIONS 
       AND A TOTAL OF          8 INNER ITERATIONS.
    ------------------------------------------------

 NO OUTPUT CONTROL FOR STRESS PERIOD   49   TIME STEP    8
 
 SOLVING FOR HEAD 
                                                   Max.-Head-Change                         Max.-Flux-Residual
  Residual-Control   Outer-Iter.   Inner-Iter.     Column Row Layer    Maximum-Head-Change  Column Row Layer    Maximum-Flux-Residual          L2-NORM 
          0                 1           2             4    7     1       0.2377392489E-01       4    7    1         0.1250045674E+01      0.2746499770E+01
          0                 2           2             5    8     1       0.3319530267E-02       5    8    1         0.1874392890E+00      0.3189459380E+00
          0                 3           2             5    8     1       0.6198302162E-03       5    8    1         0.3392994801E-01      0.3847930614E-01
          0                 4           1             5    8     1       0.1157361092E-03       5    8    1         0.6400832628E-02      0.6440352936E-02
          0                 5           1             5    8     1       0.2161051105E-04       5    8    1         0.1192656757E-02      0.1192854716E-02

    ------------------------------------------------
       NWT REQUIRED            5 OUTER ITERATIONS 
       AND A TOTAL OF          8 INNER ITERATIONS.
    ------------------------------------------------

 NO OUTPUT CONTROL FOR STRESS PERIOD   49   TIME STEP    9
 
 SOLVING FOR HEAD 
                                                   Max.-Head-Change                         Max.-Flux-Residual
  Residual-Control   Outer-Iter.   Inner-Iter.     Column Row Layer    Maximum-Head-Change  Column Row Layer    Maximum-Flux-Residual          L2-NORM 
          0                 1           2             4    7     1       0.2349977943E-01       4    7    1         0.1235382523E+01      0.2717980733E+01
          0                 2           2             5    8     1       0.3195595776E-02       5    8    1         0.1806027072E+00      0.3135741681E+00
          0                 3           2             5    8     1       0.5966872436E-03       5    8    1         0.3265186487E-01      0.3729782663E-01
          0                 4           1             5    8     1       0.1114144909E-03       5    8    1         0.6162296256E-02      0.6202855252E-02
          0                 5           1             5    8     1       0.2080351089E-04       5    8    1         0.1148111092E-02      0.1148308481E-02

    ------------------------------------------------
       NWT REQUIRED            5 OUTER ITERATIONS 
       AND A TOTAL OF          8 INNER ITERATIONS.
    ------------------------------------------------

 NO OUTPUT CONTROL FOR STRESS PERIOD   49   TIME STEP   10
 
 SOLVING FOR HEAD 
                                                   Max.-Head-Change                         Max.-Flux-Residual
  Residual-Control   Outer-Iter.   Inner-Iter.     Column Row Layer    Maximum-Head-Change  Column Row Layer    Maximum-Flux-Residual          L2-NORM 
          0                 1           2             4    7     1       0.2323289950E-01       4    7    1         0.1221133872E+01      0.2690412903E+01
          0                 2           2             5    8     1       0.3081572184E-02       5    8    1         0.1743081552E+00      0.3085479503E+00
          0                 3           2             5    8     1       0.5753950145E-03       5    8    1         0.3147631650E-01      0.3621133406E-01
          0                 4           1             5    8     1       0.1074384770E-03       5    8    1         0.5942822315E-02      0.5984361580E-02
          0                 5           1             5    8     1       0.2006104813E-04       5    8    1         0.1107128087E-02      0.1107330039E-02

    ------------------------------------------------
       NWT REQUIRED            5 OUTER ITERATIONS 
       AND A TOTAL OF          8 INNER ITERATIONS.
    ------------------------------------------------

 NO OUTPUT CONTROL FOR STRESS PERIOD   49   TIME STEP   11
 
 SOLVING FOR HEAD 
                                                   Max.-Head-Change                         Max.-Flux-Residual
  Residual-Control   Outer-Iter.   Inner-Iter.     Column Row Layer    Maximum-Head-Change  Column Row Layer    Maximum-Flux-Residual          L2-NORM 
          0                 1           2             4    7     1       0.2297265783E-01       4    7    1         0.1207262363E+01      0.2663681358E+01
          0                 2           2             5    8     1       0.2976488682E-02       5    8    1         0.1685026638E+00      0.3038267628E+00
          0                 3           2             5    8     1       0.5557722361E-03       5    8    1         0.3039325052E-01      0.3520987951E-01
          0                 4           1             5    8     1       0.1037742133E-03       5    8    1         0.5740543879E-02      0.5782996220E-02
          0                 5           1             5    8     1       0.1937680096E-04       5    8    1         0.1069358722E-02      0.1069554915E-02

    ------------------------------------------------
       NWT REQUIRED            5 OUTER ITERATIONS 
       AND A TOTAL OF          8 INNER ITERATIONS.
    ------------------------------------------------

 NO OUTPUT CONTROL FOR STRESS PERIOD   49   TIME STEP   12
 
 SOLVING FOR HEAD 
                                                   Max.-Head-Change                         Max.-Flux-Residual
  Residual-Control   Outer-Iter.   Inner-Iter.     Column Row Layer    Maximum-Head-Change  Column Row Layer    Maximum-Flux-Residual          L2-NORM 
          0                 1           2             4    7     1       0.2271849748E-01       4    7    1         0.1193735431E+01      0.2637691456E+01
          0                 2           2             5    8     1       0.2879537809E-02       5    8    1         0.1631416630E+00      0.2993714458E+00
          0                 3           2             5    8     1       0.5376681842E-03       5    8    1         0.2939434181E-01      0.3428498011E-01
          0                 4           1             5    8     1       0.1003935640E-03       5    8    1         0.5553907447E-02      0.5597210115E-02
          0                 5           1             5    8     1       0.1874551719E-04       5    8    1         0.1034513075E-02      0.1034708759E-02

    ------------------------------------------------
       NWT REQUIRED            5 OUTER ITERATIONS 
       AND A TOTAL OF          8 INNER ITERATIONS.
    ------------------------------------------------

 NO OUTPUT CONTROL FOR STRESS PERIOD   49   TIME STEP   13
 
 SOLVING FOR HEAD 
                                                   Max.-Head-Change                         Max.-Flux-Residual
  Residual-Control   Outer-Iter.   Inner-Iter.     Column Row Layer    Maximum-Head-Change  Column Row Layer    Maximum-Flux-Residual          L2-NORM 
          0                 1           2             4    7     1       0.2247006941E-01       4    7    1         0.1180531440E+01      0.2612377042E+01
          0                 2           2             5    8     1       0.2789938251E-02       5    8    1         0.1581844815E+00      0.2951696091E+00
          0                 3           2             5    8     1       0.5238714978E-03       5    8    1         0.2861020092E-01      0.3353779294E-01
          0                 4           1             5    8     1       0.9796118968E-04       5    8    1         0.5414300042E-02      0.5458056096E-02

    ------------------------------------------------
       NWT REQUIRED            4 OUTER ITERATIONS 
       AND A TOTAL OF          7 INNER ITERATIONS.
    ------------------------------------------------

 NO OUTPUT CONTROL FOR STRESS PERIOD   49   TIME STEP   14
 
 SOLVING FOR HEAD 
                                                   Max.-Head-Change                         Max.-Flux-Residual
  Residual-Control   Outer-Iter.   Inner-Iter.     Column Row Layer    Maximum-Head-Change  Column Row Layer    Maximum-Flux-Residual          L2-NORM 
          0                 1           2             4    7     1       0.2222666231E-01       4    7    1         0.1167609970E+01      0.2587696998E+01
          0                 2           2             5    8     1       0.2713145393E-02       5    8    1         0.1537527935E+00      0.2912598630E+00
          0                 3           2             5    8     1       0.5073417284E-03       5    8    1         0.2769753584E-01      0.3270315851E-01
          0                 4           1             5    8     1       0.9486986720E-04       5    8    1         0.5243864049E-02      0.5288505767E-02

    ------------------------------------------------
       NWT REQUIRED            4 OUTER ITERATIONS 
       AND A TOTAL OF          7 INNER ITERATIONS.
    ------------------------------------------------

 NO OUTPUT CONTROL FOR STRESS PERIOD   49   TIME STEP   15
 
 SOLVING FOR HEAD 
                                                   Max.-Head-Change                         Max.-Flux-Residual
  Residual-Control   Outer-Iter.   Inner-Iter.     Column Row Layer    Maximum-Head-Change  Column Row Layer    Maximum-Flux-Residual          L2-NORM 
          0                 1           2             4    7     1       0.2198820150E-01       4    7    1         0.1154964304E+01      0.2563654235E+01
          0                 2           2             5    8     1       0.2638339638E-02       5    8    1         0.1496091218E+00      0.2875143482E+00
          0                 3           2             5    8     1       0.4933517804E-03       5    8    1         0.2692717345E-01      0.3198238908E-01
          0                 4           1             5    8     1       0.9225350610E-04       5    8    1         0.5099530801E-02      0.5144791351E-02

    ------------------------------------------------
       NWT REQUIRED            4 OUTER ITERATIONS 
       AND A TOTAL OF          7 INNER ITERATIONS.
    ------------------------------------------------

 NO OUTPUT CONTROL FOR STRESS PERIOD   49   TIME STEP   16
 
 SOLVING FOR HEAD 
                                                   Max.-Head-Change                         Max.-Flux-Residual
  Residual-Control   Outer-Iter.   Inner-Iter.     Column Row Layer    Maximum-Head-Change  Column Row Layer    Maximum-Flux-Residual          L2-NORM 
          0                 1           2             4    7     1       0.2175435375E-01       4    7    1         0.1142575299E+01      0.2540101903E+01
          0                 2           2             5    8     1       0.2568731768E-02       5    8    1         0.1457501275E+00      0.2839340886E+00
          0                 3           2             5    8     1       0.4803339398E-03       5    8    1         0.2621056699E-01      0.3130940613E-01
          0                 4           1             5    8     1       0.8981894884E-04       5    8    1         0.4965217492E-02      0.5011042197E-02

    ------------------------------------------------
       NWT REQUIRED            4 OUTER ITERATIONS 
       AND A TOTAL OF          7 INNER ITERATIONS.
    ------------------------------------------------

 NO OUTPUT CONTROL FOR STRESS PERIOD   49   TIME STEP   17
 
 SOLVING FOR HEAD 
                                                   Max.-Head-Change                         Max.-Flux-Residual
  Residual-Control   Outer-Iter.   Inner-Iter.     Column Row Layer    Maximum-Head-Change  Column Row Layer    Maximum-Flux-Residual          L2-NORM 
          0                 1           2             4    7     1       0.2152469727E-01       4    7    1         0.1130418423E+01      0.2517015078E+01
          0                 2           2             5    8     1       0.2503867541E-02       5    8    1         0.1421510468E+00      0.2805043925E+00
          0                 3           2             5    8     1       0.4682032518E-03       5    8    1         0.2554301082E-01      0.3067980389E-01
          0                 4           1             5    8     1       0.8755030612E-04       5    8    1         0.4840048760E-02      0.4886380103E-02

    ------------------------------------------------
       NWT REQUIRED            4 OUTER ITERATIONS 
       AND A TOTAL OF          7 INNER ITERATIONS.
    ------------------------------------------------

 NO OUTPUT CONTROL FOR STRESS PERIOD   49   TIME STEP   18
 
 SOLVING FOR HEAD 
                                                   Max.-Head-Change                         Max.-Flux-Residual
  Residual-Control   Outer-Iter.   Inner-Iter.     Column Row Layer    Maximum-Head-Change  Column Row Layer    Maximum-Flux-Residual          L2-NORM 
          0                 1           2             4    7     1       0.2129911709E-01       4    7    1         0.1118486344E+01      0.2494361354E+01
          0                 2           2             5    8     1       0.2443285207E-02       5    8    1         0.1387866633E+00      0.2772103728E+00
          0                 3           2             5    8     1       0.4568733579E-03       5    8    1         0.2491972441E-01      0.3008918536E-01
          0                 4           1             5    8     1       0.8543142739E-04       5    8    1         0.4723134657E-02      0.4769920615E-02

    ------------------------------------------------
       NWT REQUIRED            4 OUTER ITERATIONS 
       AND A TOTAL OF          7 INNER ITERATIONS.
    ------------------------------------------------

 NO OUTPUT CONTROL FOR STRESS PERIOD   49   TIME STEP   19
 
 SOLVING FOR HEAD 
                                                   Max.-Head-Change                         Max.-Flux-Residual
  Residual-Control   Outer-Iter.   Inner-Iter.     Column Row Layer    Maximum-Head-Change  Column Row Layer    Maximum-Flux-Residual          L2-NORM 
          0                 1           2             4    7     1       0.2107725563E-01       4    7    1         0.1106758522E+01      0.2472120190E+01
          0                 2           2             5    8     1       0.2386647722E-02       5    8    1         0.1356386190E+00      0.2740411875E+00
          0                 3           2             5    8     1       0.4462812203E-03       5    8    1         0.2433721498E-01      0.2953430372E-01
          0                 4           1             5    8     1       0.8345052254E-04       5    8    1         0.4613825731E-02      0.4661019618E-02

    ------------------------------------------------
       NWT REQUIRED            4 OUTER ITERATIONS 
       AND A TOTAL OF          7 INNER ITERATIONS.
    ------------------------------------------------

 NO OUTPUT CONTROL FOR STRESS PERIOD   49   TIME STEP   20
 
 SOLVING FOR HEAD 
                                                   Max.-Head-Change                         Max.-Flux-Residual
  Residual-Control   Outer-Iter.   Inner-Iter.     Column Row Layer    Maximum-Head-Change  Column Row Layer    Maximum-Flux-Residual          L2-NORM 
          0                 1           2             4    7     1       0.2085905163E-01       4    7    1         0.1095230960E+01      0.2450273260E+01
          0                 2           2             5    8     1       0.2333598634E-02       5    8    1         0.1326874375E+00      0.2709861988E+00
          0                 3           2             5    8     1       0.4363601770E-03       5    8    1         0.2379179301E-01      0.2901180905E-01
          0                 4           1             5    8     1       0.8159512353E-04       5    8    1         0.4511434962E-02      0.4558983375E-02

    ------------------------------------------------
       NWT REQUIRED            4 OUTER ITERATIONS 
       AND A TOTAL OF          7 INNER ITERATIONS.
    ------------------------------------------------

 NO OUTPUT CONTROL FOR STRESS PERIOD   49   TIME STEP   21
 
 SOLVING FOR HEAD 
                                                   Max.-Head-Change                         Max.-Flux-Residual
  Residual-Control   Outer-Iter.   Inner-Iter.     Column Row Layer    Maximum-Head-Change  Column Row Layer    Maximum-Flux-Residual          L2-NORM 
          0                 1           2             4    7     1       0.2064433128E-01       4    7    1         0.1083893187E+01      0.2428800675E+01
          0                 2           2             5    8     1       0.2283816372E-02       5    8    1         0.1299155503E+00      0.2680355768E+00
          0                 3           2             5    8     1       0.4270500849E-03       5    8    1         0.2328012974E-01      0.2851868214E-01
          0                 4           1             5    8     1       0.7985398364E-04       5    8    1         0.4415342582E-02      0.4463202734E-02

    ------------------------------------------------
       NWT REQUIRED            4 OUTER ITERATIONS 
       AND A TOTAL OF          7 INNER ITERATIONS.
    ------------------------------------------------

 NO OUTPUT CONTROL FOR STRESS PERIOD   49   TIME STEP   22
 
 SOLVING FOR HEAD 
                                                   Max.-Head-Change                         Max.-Flux-Residual
  Residual-Control   Outer-Iter.   Inner-Iter.     Column Row Layer    Maximum-Head-Change  Column Row Layer    Maximum-Flux-Residual          L2-NORM 
          0                 1           2             4    7     1       0.2043280522E-01       4    7    1         0.1072728900E+01      0.2407690611E+01
          0                 2           2             5    8     1       0.2237038146E-02       5    8    1         0.1273086515E+00      0.2651818246E+00
          0                 3           2             5    8     1       0.4183017978E-03       5    8    1         0.2279950143E-01      0.2805249331E-01
          0                 4           1             5    8     1       0.7821791063E-04       5    8    1         0.4325042260E-02      0.4373170580E-02

    ------------------------------------------------
       NWT REQUIRED            4 OUTER ITERATIONS 
       AND A TOTAL OF          7 INNER ITERATIONS.
    ------------------------------------------------

 NO OUTPUT CONTROL FOR STRESS PERIOD   49   TIME STEP   23
 
 SOLVING FOR HEAD 
                                                   Max.-Head-Change                         Max.-Flux-Residual
  Residual-Control   Outer-Iter.   Inner-Iter.     Column Row Layer    Maximum-Head-Change  Column Row Layer    Maximum-Flux-Residual          L2-NORM 
          0                 1           2             4    7     1       0.2022460900E-01       4    7    1         0.1061744924E+01      0.2386937259E+01
          0                 2           2             5    8     1       0.2192999527E-02       5    8    1         0.1248522577E+00      0.2624181007E+00
          0                 3           2             5    8     1       0.4100658612E-03       5    8    1         0.2234717339E-01      0.2761085440E-01
          0                 4           1             5    8     1       0.7667765542E-04       5    8    1         0.4240024224E-02      0.4288381652E-02

    ------------------------------------------------
       NWT REQUIRED            4 OUTER ITERATIONS 
       AND A TOTAL OF          7 INNER ITERATIONS.
    ------------------------------------------------

 NO OUTPUT CONTROL FOR STRESS PERIOD   49   TIME STEP   24
 
 SOLVING FOR HEAD 
                                                   Max.-Head-Change                         Max.-Flux-Residual
  Residual-Control   Outer-Iter.   Inner-Iter.     Column Row Layer    Maximum-Head-Change  Column Row Layer    Maximum-Flux-Residual          L2-NORM 
          0                 1           2             4    7     1       0.2001934477E-01       4    7    1         0.1050919153E+01      0.2366512301E+01
          0                 2           2             5    8     1       0.2151462652E-02       5    8    1         0.1225333999E+00      0.2597362954E+00
          0                 3           2             5    8     1       0.4022977910E-03       5    8    1         0.2192068164E-01      0.2719151868E-01
          0                 4           1             5    8     1       0.7522489868E-04       5    8    1         0.4159830134E-02      0.4208378917E-02

    ------------------------------------------------
       NWT REQUIRED            4 OUTER ITERATIONS 
       AND A TOTAL OF          7 INNER ITERATIONS.
    ------------------------------------------------

 NO OUTPUT CONTROL FOR STRESS PERIOD   49   TIME STEP   25
 
 SOLVING FOR HEAD 
                                                   Max.-Head-Change                         Max.-Flux-Residual
  Residual-Control   Outer-Iter.   Inner-Iter.     Column Row Layer    Maximum-Head-Change  Column Row Layer    Maximum-Flux-Residual          L2-NORM 
          0                 1           2             4    7     1       0.1981704592E-01       4    7    1         0.1040252790E+01      0.2346423467E+01
          0                 2           2             5    8     1       0.2112238075E-02       5    8    1         0.1203417064E+00      0.2571326801E+00
          0                 3           2             5    8     1       0.3949621561E-03       5    8    1         0.2151806667E-01      0.2679283938E-01
          0                 4           1             5    8     1       0.7385301460E-04       5    8    1         0.4084094819E-02      0.4132794781E-02

    ------------------------------------------------
       NWT REQUIRED            4 OUTER ITERATIONS 
       AND A TOTAL OF          7 INNER ITERATIONS.
    ------------------------------------------------

 NO OUTPUT CONTROL FOR STRESS PERIOD   49   TIME STEP   26
 
 SOLVING FOR HEAD 
                                                   Max.-Head-Change                         Max.-Flux-Residual
  Residual-Control   Outer-Iter.   Inner-Iter.     Column Row Layer    Maximum-Head-Change  Column Row Layer    Maximum-Flux-Residual          L2-NORM 
          0                 1           2             4    7     1       0.1961673049E-01       4    7    1         0.1029740278E+01      0.2312968830E+01
          0                 2           2             5    8     1       0.2088886548E-02       5    8    1         0.1174174684E+00      0.2365954932E+00
          0                 3           2             5    8     1       0.3904153904E-03       5    8    1         0.2139174283E-01      0.2579611216E-01
          0                 4           1             5    8     1       0.7300212020E-04       5    8    1         0.4032109167E-02      0.4073335206E-02

    ------------------------------------------------
       NWT REQUIRED            4 OUTER ITERATIONS 
       AND A TOTAL OF          7 INNER ITERATIONS.
    ------------------------------------------------

 NO OUTPUT CONTROL FOR STRESS PERIOD   49   TIME STEP   27
 
 SOLVING FOR HEAD 
                                                   Max.-Head-Change                         Max.-Flux-Residual
  Residual-Control   Outer-Iter.   Inner-Iter.     Column Row Layer    Maximum-Head-Change  Column Row Layer    Maximum-Flux-Residual          L2-NORM 
          0                 1           2             4    8     1       0.1987364859E-01       4    8    1         0.1051391576E+01      0.2377176720E+01
          0                 2           2             4    8     1       0.3845591979E-02       4    8    1         0.2094975061E+00      0.3159200747E+00
          0                 3           2             4    8     1       0.7441938877E-03       4    8    1         0.3999280340E-01      0.4793721665E-01
          0                 4           2             4    8     1       0.1440269121E-03       4    8    1         0.7773114763E-02      0.8921620922E-02
          0                 5           1             4    8     1       0.2787623726E-04       4    8    1         0.1503093999E-02      0.1724035672E-02

    ------------------------------------------------
       NWT REQUIRED            5 OUTER ITERATIONS 
       AND A TOTAL OF          9 INNER ITERATIONS.
    ------------------------------------------------

 NO OUTPUT CONTROL FOR STRESS PERIOD   49   TIME STEP   28
 
 SOLVING FOR HEAD 
                                                   Max.-Head-Change                         Max.-Flux-Residual
  Residual-Control   Outer-Iter.   Inner-Iter.     Column Row Layer    Maximum-Head-Change  Column Row Layer    Maximum-Flux-Residual          L2-NORM 
          0                 1           2             4    7     1       0.1941680143E-01       4    8    1         0.1017911765E+01      0.2353420458E+01
          0                 2           2             4    8     1       0.3727829985E-02       4    8    1         0.2031080568E+00      0.3108651275E+00
          0                 3           2             4    8     1       0.7216357540E-03       4    8    1         0.3876762106E-01      0.4684095336E-01
          0                 4           2             4    8     1       0.1397037586E-03       4    8    1         0.7538500180E-02      0.8703846211E-02
          0                 5           1             4    8     1       0.2704735713E-04       4    8    1         0.1458121021E-02      0.1681842206E-02

    ------------------------------------------------
       NWT REQUIRED            5 OUTER ITERATIONS 
       AND A TOTAL OF          9 INNER ITERATIONS.
    ------------------------------------------------

 NO OUTPUT CONTROL FOR STRESS PERIOD   49   TIME STEP   29
 
 SOLVING FOR HEAD 
                                                   Max.-Head-Change                         Max.-Flux-Residual
  Residual-Control   Outer-Iter.   Inner-Iter.     Column Row Layer    Maximum-Head-Change  Column Row Layer    Maximum-Flux-Residual          L2-NORM 
          0                 1           2             4    7     1       0.1933883443E-01       4    7    1         0.1013982087E+01      0.2330522660E+01
          0                 2           2             4    8     1       0.3617132392E-02       4    8    1         0.1971022176E+00      0.3060600653E+00
          0                 3           2             4    8     1       0.7004202012E-03       4    8    1         0.3761585330E-01      0.4580280205E-01
          0                 4           2             4    8     1       0.1356359177E-03       4    8    1         0.7317806512E-02      0.8497469200E-02
          0                 5           1             4    8     1       0.2626705720E-04       4    8    1         0.1415797466E-02      0.1641833283E-02

    ------------------------------------------------
       NWT REQUIRED            5 OUTER ITERATIONS 
       AND A TOTAL OF          9 INNER ITERATIONS.
    ------------------------------------------------

 NO OUTPUT CONTROL FOR STRESS PERIOD   49   TIME STEP   30



 STREAM LISTING     PERIOD     49   STEP       30

 LAYER ROW COL. STREAM  RCH.  FLOW INTO     FLOW TO   FLOW OUT OF   OVRLND.     DIRECT     STREAM       STREAM     STREAM     STREAM   STREAMBED  STREAMBED
                SEG.NO.  NO.  STRM. RCH.    AQUIFER    STRM. RCH.    RUNOFF     PRECIP       ET          HEAD       DEPTH      WIDTH   CONDCTNC.   GRADIENT

   1    1    1     1     1    7.1250E+00  1.2038E-01   7.0046E+00  0.000E+00  0.000E+00  0.000E+00  1.09385E+03  8.024E-01  7.035E+00  3.166E-02  1.267E+00
   1    2    2     1     2    7.0046E+00  1.8492E-01   6.8197E+00  0.000E+00  0.000E+00  0.000E+00  1.08886E+03  7.976E-01  6.956E+00  4.869E-02  1.266E+00
   1    3    3     1     3    6.8197E+00  1.5635E-01   6.6634E+00  0.000E+00  0.000E+00  0.000E+00  1.08321E+03  7.929E-01  6.870E+00  4.122E-02  1.264E+00
   1    3    4     1     4    6.6634E+00  1.4286E-01   6.5205E+00  0.000E+00  0.000E+00  0.000E+00  1.07820E+03  7.886E-01  6.794E+00  3.771E-02  1.263E+00
   1    4    5     2     1    4.5205E+00  2.6715E-01   4.2533E+00  0.000E+00  0.000E+00  0.000E+00  1.07236E+03  4.251E-01  1.200E+01  7.800E-02  1.142E+00
   1    5    6     2     2    4.2533E+00  2.0467E-01   4.0487E+00  0.000E+00  0.000E+00  0.000E+00  1.06692E+03  4.112E-01  1.200E+01  6.000E-02  1.137E+00
   1    6    6     2     3    4.0487E+00  2.0394E-01   3.8447E+00  0.000E+00  0.000E+00  0.000E+00  1.06219E+03  3.989E-01  1.200E+01  6.000E-02  1.133E+00
   1    7    6     2     4    3.8447E+00  2.0319E-01   3.6416E+00  0.000E+00  0.000E+00  0.000E+00  1.05746E+03  3.864E-01  1.200E+01  6.000E-02  1.129E+00
   1    8    6     2     5    3.6416E+00  2.0242E-01   3.4391E+00  0.000E+00  0.000E+00  0.000E+00  1.05273E+03  3.737E-01  1.200E+01  6.000E-02  1.125E+00
   1    3    5     3     1    2.0000E+00  2.8252E-01   1.7175E+00  0.000E+00  0.000E+00  0.000E+00  1.07555E+03  1.909E+00  9.636E+00  7.227E-02  1.955E+00
   1    3    6     3     2    1.7175E+00  2.4905E-01   1.4684E+00  0.000E+00  0.000E+00  0.000E+00  1.07264E+03  1.727E+00  8.909E+00  6.682E-02  1.864E+00
   1    3    7     3     3    1.4684E+00  1.9718E-01   1.2712E+00  0.000E+00  0.000E+00  0.000E+00  1.06987E+03  1.555E+00  8.218E+00  5.547E-02  1.777E+00
   1    4    8     3     4    1.2712E+00  2.2567E-01   1.0456E+00  0.000E+00  0.000E+00  0.000E+00  1.06682E+03  1.364E+00  7.455E+00  6.709E-02  1.682E+00
   1    5    8     3     5    1.0456E+00  1.5790E-01   8.8768E-01  0.000E+00  0.000E+00  0.000E+00  1.06362E+03  1.164E+00  6.655E+00  4.991E-02  1.582E+00
   1    6    8     3     6    8.8768E-01  5.5980E-02   8.3170E-01  0.000E+00  0.000E+00  0.000E+00  1.06158E+03  1.036E+00  6.145E+00  1.844E-02  1.518E+00
   1    5   10     4     1    1.0000E+01  9.0919E-02   9.9091E+00  0.000E+00  0.000E+00  0.000E+00  1.07836E+03  6.368E-01  1.000E+01  2.500E-02  1.212E+00
   1    5    9     4     2    9.9091E+00  1.8158E-01   9.7275E+00  0.000E+00  0.000E+00  0.000E+00  1.07154E+03  6.315E-01  1.000E+01  5.000E-02  1.211E+00
   1    6    8     4     3    9.7275E+00  1.2689E-01   9.6006E+00  0.000E+00  0.000E+00  0.000E+00  1.06381E+03  6.256E-01  1.000E+01  3.500E-02  1.209E+00
   1    6    8     5     1    1.0432E+01  2.2686E-01   1.0205E+01  0.000E+00  0.000E+00  0.000E+00  1.05868E+03  6.790E-01  1.542E+01  6.166E-02  1.226E+00
   1    7    7     5     2    1.0205E+01  2.7894E-01   9.9265E+00  0.000E+00  0.000E+00  0.000E+00  1.05417E+03  6.732E-01  1.519E+01  7.594E-02  1.224E+00
   1    8    7     5     3    9.9265E+00  1.9221E-01   9.7343E+00  0.000E+00  0.000E+00  0.000E+00  1.04992E+03  6.676E-01  1.497E+01  5.241E-02  1.223E+00
   1    8    6     5     4    9.7343E+00  1.3577E-01   9.5985E+00  0.000E+00  0.000E+00  0.000E+00  1.04691E+03  6.637E-01  1.482E+01  3.706E-02  1.221E+00
   1    9    6     6     1    1.3038E+01  2.2931E-01   1.2808E+01  0.000E+00  0.000E+00  0.000E+00  1.04355E+03  8.218E-01  1.200E+01  6.000E-02  1.274E+00
   1   10    7     6     2    1.2808E+01  2.2878E-01   1.2580E+01  0.000E+00  0.000E+00  0.000E+00  1.03899E+03  8.131E-01  1.200E+01  6.000E-02  1.271E+00
   1   11    7     6     3    1.2580E+01  2.2826E-01   1.2351E+01  0.000E+00  0.000E+00  0.000E+00  1.03444E+03  8.043E-01  1.200E+01  6.000E-02  1.268E+00
   1   12    7     6     4    1.2351E+01  2.2772E-01   1.2124E+01  0.000E+00  0.000E+00  0.000E+00  1.02989E+03  7.954E-01  1.200E+01  6.000E-02  1.265E+00
   1   13    7     6     5    1.2124E+01  7.9090E-03   1.2116E+01  0.000E+00  0.000E+00  0.000E+00  1.02670E+03  7.908E-01  1.200E+01  2.400E-02  1.098E-01
   1   14    9     7     1    1.5000E+02  1.4136E+00   1.4859E+02  0.000E+00  0.000E+00  0.000E+00  1.03987E+03  2.288E+00  5.529E+01  5.593E-01  8.425E-01
   1   13    8     7     2    1.4859E+02  2.0685E+00   1.4652E+02  0.000E+00  0.000E+00  0.000E+00  1.03478E+03  2.278E+00  5.525E+01  6.147E-01  1.122E+00
   1   13    7     7     3    1.4652E+02  1.8518E+00   1.4467E+02  0.000E+00  0.000E+00  0.000E+00  1.02969E+03  2.268E+00  5.521E+01  5.583E-01  1.106E+00
   1   13    6     8     1    1.5678E+02  1.2139E+00   1.5557E+02  0.000E+00  0.000E+00  0.000E+00  1.02473E+03  2.860E+00  4.147E+01  4.226E-01  9.576E-01
   1   13    5     8     2    1.5557E+02  4.5452E-01   1.5511E+02  0.000E+00  0.000E+00  0.000E+00  1.01848E+03  2.854E+00  4.138E+01  4.217E-01  3.593E-01
   1   13    4     8     3    1.5511E+02 -1.4707E+00   1.5658E+02  0.000E+00  0.000E+00  0.000E+00  1.01223E+03  2.858E+00  4.143E+01  4.222E+00 -1.161E-01
   1   13    3     8     4    1.5658E+02 -3.1687E+00   1.5975E+02  0.000E+00  0.000E+00  0.000E+00  1.00600E+03  2.873E+00  4.166E+01  4.246E+00 -2.488E-01
   1   13    2     8     5    1.5975E+02 -2.4583E+00   1.6221E+02  0.000E+00  0.000E+00  0.000E+00  9.99767E+02  2.892E+00  4.194E+01  4.274E+00 -1.917E-01
   1   13    1     8     6    1.6221E+02 -1.9509E+00   1.6416E+02  0.000E+00  0.000E+00  0.000E+00  9.94782E+02  2.907E+00  4.216E+01  2.577E+00 -2.523E-01
   1    8    6     9     1    0.0000E+00  0.0000E+00   0.0000E+00  0.000E+00  0.000E+00  0.000E+00  1.07875E+03  0.000E+00  4.000E+00  0.000E+00  1.000E+00
   1    8    5     9     2    0.0000E+00  0.0000E+00   0.0000E+00  0.000E+00  0.000E+00  0.000E+00  1.07825E+03  0.000E+00  4.000E+00  0.000E+00  1.000E+00





UNSATURATED ZONE PACKAGE VOLUMETRIC BUDGET FOR  TIME STEP    30 STRESS PERIOD   49
  ------------------------------------------------------------------------------



     CUMULATIVE VOLUMES      L**3       RATES FOR THIS TIME STEP      L**3/T
     ------------------                 ------------------------

           IN:                                      IN:
           ---                                      ---
        INFILTRATION =  2192174392.6027          INFILTRATION =           0.8475

          OUT:                                     OUT:
          ----                                     ----
              UZF ET =  1707687858.5803                UZF ET =           0.7500
        UZF RECHARGE =    90947495.7659          UZF RECHARGE =           0.9186

            IN - OUT =   393539038.2565              IN - OUT =          -0.8211

          STORAGE:                                 STORAGE:
          --------                                 --------
      STORAGE CHANGE =   393548856.4736        STORAGE CHANGE =          -0.8211

 PERCENT DISCREPANCY IS DIFFERENCE BETWEEN IN-OUT MINUS CHANGE IN STORAGE
 DIVIDED BY THE AVERAGE OF IN AND OUT TIMES 100

 PERCENT DISCREPANCY =          -0.00     PERCENT DISCREPANCY =          -0.00






1
  VOLUMETRIC BUDGET FOR AGRICULTURAL FIELDS AT  END OF TIME STEP   30, STRESS PERIOD  49
  ------------------------------------------------------------------------------

     CUMULATIVE VOLUMES      L**3       RATES FOR THIS TIME STEP      L**3/T
     ------------------                 ------------------------

           IN:                                      IN:
           ---                                      ---
               AG WELLS  =  1373766400.0000                 AG WELLS  =           0.0000
      DIVERSION SEGMENTS =   711589504.0000        DIVERSION SEGMENTS =           0.0000
       IRRIGATION PONDS  =           0.0000         IRRIGATION PONDS  =           0.0000
           GW IRRIGATION =           0.0000             GW IRRIGATION =           0.0000
           SW IRRIGATION =           0.0000             SW IRRIGATION =           0.0000
        SYSTEM LOSSES GW =           0.0000          SYSTEM LOSSES GW =           0.0000
        SYSTEM LOSSES SW =           0.0000          SYSTEM LOSSES SW =           0.0000

                TOTAL IN =  2085355904.0000                  TOTAL IN =           0.0000

          OUT:                                     OUT:
          ----                                     ----
               AG WELLS  =           0.0000                 AG WELLS  =           0.0000
      DIVERSION SEGMENTS =           0.0000        DIVERSION SEGMENTS =           0.0000
       IRRIGATION PONDS  =           0.0000         IRRIGATION PONDS  =           0.0000
           GW IRRIGATION =  1373766400.0000             GW IRRIGATION =           0.0000
           SW IRRIGATION =   711603392.0000             SW IRRIGATION =           0.0000
        SYSTEM LOSSES GW =           0.0000          SYSTEM LOSSES GW =           0.0000
        SYSTEM LOSSES SW =           0.0000          SYSTEM LOSSES SW =           0.0000

               TOTAL OUT =  2085369856.0000                 TOTAL OUT =           0.0000

                IN - OUT =      -13952.0000                  IN - OUT =           0.0000

     PERCENT DISCREPANCY =          -0.00         PERCENT DISCREPANCY =           0.00



1
  VOLUMETRIC BUDGET FOR ENTIRE MODEL AT END OF TIME STEP   30, STRESS PERIOD  49
  ------------------------------------------------------------------------------

     CUMULATIVE VOLUMES      L**3       RATES FOR THIS TIME STEP      L**3/T
     ------------------                 ------------------------

           IN:                                      IN:
           ---                                      ---
             STORAGE     =  2069689088.0000               STORAGE     =           4.7223
       CONSTANT HEAD     =           0.0000         CONSTANT HEAD     =           0.0000
     HEAD DEP BOUNDS     =    36516668.0000       HEAD DEP BOUNDS     =           0.2911
      STREAM LEAKAGE     =  1525140992.0000        STREAM LEAKAGE     =          12.0117
        UZF RECHARGE     =    90947496.0000          UZF RECHARGE     =           0.9186
               GW ET     =           0.0000                 GW ET     =           0.0000
     SURFACE LEAKAGE     =           0.0000       SURFACE LEAKAGE     =           0.0000
           AG WELLS      =           0.0000             AG WELLS      =           0.0000

                TOTAL IN =  3722294272.0000                  TOTAL IN =          17.9436

          OUT:                                     OUT:
          ----                                     ----
             STORAGE     =  1089190912.0000               STORAGE     =           8.6081
       CONSTANT HEAD     =           0.0000         CONSTANT HEAD     =           0.0000
     HEAD DEP BOUNDS     =    36336764.0000       HEAD DEP BOUNDS     =           0.2865
      STREAM LEAKAGE     =  1222962304.0000        STREAM LEAKAGE     =           9.0486
        UZF RECHARGE     =           0.0000          UZF RECHARGE     =           0.0000
               GW ET     =           0.0000                 GW ET     =           0.0000
     SURFACE LEAKAGE     =           0.0000       SURFACE LEAKAGE     =           0.0000
           AG WELLS      =  1373766400.0000             AG WELLS      =           0.0000

               TOTAL OUT =  3722256384.0000                 TOTAL OUT =          17.9432

                IN - OUT =       37888.0000                  IN - OUT =       4.4823E-04

     PERCENT DISCREPANCY =           0.00         PERCENT DISCREPANCY =           0.00






         TIME SUMMARY AT END OF TIME STEP   30 IN STRESS PERIOD   49
                    SECONDS     MINUTES      HOURS       DAYS        YEARS
                    -----------------------------------------------------------
   TIME STEP LENGTH  87667.      1461.1      24.352      1.0147     2.77799E-03
 STRESS PERIOD TIME 2.63000E+06  43833.      730.56      30.440     8.33397E-02
         TOTAL TIME 1.26325E+08 2.10542E+06  35090.      1462.1      4.0030    
1


 Run end date and time (yyyy/mm/dd hh:mm:ss): 2021/11/04 11:05:44
 Elapsed run time: 3.881 Seconds

