                                  MODFLOW-NWT-SWR1 
      U.S. GEOLOGICAL SURVEY MODULAR FINITE-DIFFERENCE GROUNDWATER-FLOW MODEL
                            VERSION 1.2.0 03/01/2020
                    BASED ON MODFLOW-2005 VERSION 1.12.00 02/03/2017

 LIST FILE: ./output/low/Agwater1_low.lst
                         UNIT    9

 OPENING ./input/Agwater1.ba6
 FILE TYPE:BAS6   UNIT   75   STATUS:OLD    
 FORMAT:FORMATTED              ACCESS:SEQUENTIAL          

 OPENING ./input/Agwater1.upw
 FILE TYPE:UPW   UNIT    7   STATUS:OLD    
 FORMAT:FORMATTED              ACCESS:SEQUENTIAL          

 OPENING ./input/Agwater1.dis
 FILE TYPE:DIS   UNIT    8   STATUS:OLD    
 FORMAT:FORMATTED              ACCESS:SEQUENTIAL          

 OPENING ./input/Agwater1.nwt
 FILE TYPE:NWT   UNIT   13   STATUS:OLD    
 FORMAT:FORMATTED              ACCESS:SEQUENTIAL          

 OPENING ./input/Agwater1.oc
 FILE TYPE:OC   UNIT   14   STATUS:OLD    
 FORMAT:FORMATTED              ACCESS:SEQUENTIAL          

 OPENING ./input/Agwater1.sfr
 FILE TYPE:SFR   UNIT   15   STATUS:OLD    
 FORMAT:FORMATTED              ACCESS:SEQUENTIAL          

 OPENING ./input/Agwater1.ghb
 FILE TYPE:GHB   UNIT   17   STATUS:OLD    
 FORMAT:FORMATTED              ACCESS:SEQUENTIAL          

 OPENING ./input/Agwater1.uzf
 FILE TYPE:UZF   UNIT   19   STATUS:OLD    
 FORMAT:FORMATTED              ACCESS:SEQUENTIAL          

 OPENING ./input/Agwater1.gag
 FILE TYPE:GAGE   UNIT   32   STATUS:OLD    
 FORMAT:FORMATTED              ACCESS:SEQUENTIAL          

 OPENING ./input/seg1_low.tab
 FILE TYPE:DATA   UNIT   55   STATUS:UNKNOWN
 FORMAT:FORMATTED              ACCESS:SEQUENTIAL          

 OPENING ./input/seg9.tab
 FILE TYPE:DATA   UNIT   56   STATUS:UNKNOWN
 FORMAT:FORMATTED              ACCESS:SEQUENTIAL          

 OPENING ./input/Agwater1.ag
 FILE TYPE:AG   UNIT   57   STATUS:OLD    
 FORMAT:FORMATTED              ACCESS:SEQUENTIAL          

 OPENING ./output/low/Agwater1_low.hed
 FILE TYPE:DATA   UNIT   62   STATUS:UNKNOWN
 FORMAT:FORMATTED              ACCESS:SEQUENTIAL          

 OPENING ./output/low/Agwater1gw_low.ts5
 FILE TYPE:DATA   UNIT  105   STATUS:UNKNOWN
 FORMAT:FORMATTED              ACCESS:SEQUENTIAL          

 OPENING ./output/low/Agwater1SW_low.ts9
 FILE TYPE:DATA   UNIT  107   STATUS:UNKNOWN
 FORMAT:FORMATTED              ACCESS:SEQUENTIAL          

 OPENING ./output/low/Agwater1SW_ET_low.ts9
 FILE TYPE:DATA   UNIT  108   STATUS:UNKNOWN
 FORMAT:FORMATTED              ACCESS:SEQUENTIAL          

 OPENING ./output/low/Agwater1_low.uzfot
 FILE TYPE:DATA(BINARY)   UNIT   61   STATUS:UNKNOWN
 FORMAT:UNFORMATTED            ACCESS:STREAM              

 OPENING ./output/low/Agwater1cbc_low.unf
 FILE TYPE:DATA(BINARY)   UNIT  102   STATUS:UNKNOWN
 FORMAT:UNFORMATTED            ACCESS:STREAM              

 OPENING ./output/low/Agwater1_low.uzf1
 FILE TYPE:DATA   UNIT   65   STATUS:UNKNOWN
 FORMAT:FORMATTED              ACCESS:SEQUENTIAL          

 OPENING ./output/low/Agwater1_low.uzf2
 FILE TYPE:DATA   UNIT   66   STATUS:UNKNOWN
 FORMAT:FORMATTED              ACCESS:SEQUENTIAL          

 OPENING ./output/low/Agwater1_low.uzf3
 FILE TYPE:DATA   UNIT   67   STATUS:UNKNOWN
 FORMAT:FORMATTED              ACCESS:SEQUENTIAL          

 OPENING ./output/low/Agwater1_low.uzf4
 FILE TYPE:DATA   UNIT   68   STATUS:UNKNOWN
 FORMAT:FORMATTED              ACCESS:SEQUENTIAL          

 OPENING ./output/low/Agwater1_low.flw
 FILE TYPE:DATA   UNIT   81   STATUS:UNKNOWN
 FORMAT:FORMATTED              ACCESS:SEQUENTIAL          

 OPENING ./output/low/Agwater1_low.sg1
 FILE TYPE:DATA   UNIT   83   STATUS:UNKNOWN
 FORMAT:FORMATTED              ACCESS:SEQUENTIAL          

 OPENING ./output/low/Agwater1_low.sg2
 FILE TYPE:DATA   UNIT   84   STATUS:UNKNOWN
 FORMAT:FORMATTED              ACCESS:SEQUENTIAL          

 OPENING ./output/low/Agwater1_low.sg3
 FILE TYPE:DATA   UNIT   85   STATUS:UNKNOWN
 FORMAT:FORMATTED              ACCESS:SEQUENTIAL          

 OPENING ./output/low/Agwater1_low.sg4
 FILE TYPE:DATA   UNIT   86   STATUS:UNKNOWN
 FORMAT:FORMATTED              ACCESS:SEQUENTIAL          

 OPENING ./output/low/Agwater1_low.sg5
 FILE TYPE:DATA   UNIT   87   STATUS:UNKNOWN
 FORMAT:FORMATTED              ACCESS:SEQUENTIAL          

 OPENING ./output/low/Agwater1_low.sg6
 FILE TYPE:DATA   UNIT   88   STATUS:UNKNOWN
 FORMAT:FORMATTED              ACCESS:SEQUENTIAL          

 OPENING ./output/low/Agwater1_low.sg7
 FILE TYPE:DATA   UNIT   89   STATUS:UNKNOWN
 FORMAT:FORMATTED              ACCESS:SEQUENTIAL          

 OPENING ./output/low/Agwater1_low.sg8
 FILE TYPE:DATA   UNIT   90   STATUS:UNKNOWN
 FORMAT:FORMATTED              ACCESS:SEQUENTIAL          

 OPENING ./output/low/Agwater1_low.sg9
 FILE TYPE:DATA   UNIT   91   STATUS:UNKNOWN
 FORMAT:FORMATTED              ACCESS:SEQUENTIAL          

 BAS -- BASIC PACKAGE, VERSION 1.1.4, 4/01/2018 INPUT READ FROM UNIT   75
 
 MODFLOW was compiled using mixed precision
 Precision of REAL variables:           6
 Precision of DOUBLE PRECISION variables:          15

 DISCRETIZATION INPUT DATA READ FROM UNIT    8
 #Test problem 2-- Discretization input
 #Example problem using the UZF1 Package
    1 LAYERS        15 ROWS        10 COLUMNS
   49 STRESS PERIOD(S) IN SIMULATION
 MODEL TIME UNIT IS SECONDS
 MODEL LENGTH UNIT IS FEET
  Confining bed flag for each layer:
   0

                     DELR =   5000.00    

                     DELC =   5000.00    



           TOP ELEVATION OF LAYER 1
 READING ON UNIT    8 WITH FORMAT: (10F7.0)            

            1           2           3           4           5           6           7           8           9          10
 ........................................................................................................................
   1    1105.       1105.       0.000       0.000       0.000       0.000       0.000       0.000       0.000       0.000    
   2    1105.       1095.       1105.       0.000       0.000       1100.       1100.       1110.       0.000       0.000    
   3    0.000       1100.       1085.       1080.       1078.       1076.       1073.       1090.       0.000       0.000    
   4    1110.       1100.       1090.       1085.       1076.       1080.       1080.       1070.       1100.       0.000    
   5    1110.       1100.       1085.       1080.       1078.       1074.       1077.       1066.       1075.       1080.    
   6    1105.       1095.       1080.       1077.       1073.       1069.       1070.       1063.       1085.       1095.    
   7    1105.       1090.       1075.       1072.       1070.       1065.       1065.       1069.       1090.       0.000    
   8    0.000       1080.       1070.       1068.       1063.       1060.       1063.       1067.       1090.       0.000    
   9    0.000       1075.       1065.       1062.       1058.       1052.       1055.       1065.       1090.       0.000    
  10    0.000       1070.       1060.       1055.       1046.       1046.       1044.       1060.       1088.       1100.    
  11    0.000       1055.       1050.       1045.       1041.       1042.       1040.       1050.       1075.       0.000    
  12    1027.       1028.       1028.       1032.       1032.       1033.       1032.       1040.       1060.       0.000    
  13    997.0       1004.       1008.       1014.       1020.       1027.       1032.       1038.       1050.       0.000    
  14    0.000       1030.       1040.       1045.       1050.       1050.       1050.       1050.       1044.       0.000    
  15    0.000       0.000       1080.       1080.       1080.       1080.       0.000       0.000       0.000       0.000    



             MODEL LAYER BOTTOM EL. FOR LAYER   1
 READING ON UNIT    8 WITH FORMAT: (10F7.0)            

            1           2           3           4           5           6           7           8           9          10
 ........................................................................................................................
   1    1000.       1000.       0.000       0.000       0.000       0.000       0.000       0.000       0.000       0.000    
   2    1000.       900.0       900.0       0.000       0.000       950.0       950.0       950.0       0.000       0.000    
   3    0.000       850.0       670.0       680.0       680.0       770.0       770.0       890.0       0.000       0.000    
   4    925.0       850.0       650.0       650.0       650.0       680.0       740.0       850.0       950.0       0.000    
   5    925.0       800.0       650.0       600.0       600.0       600.0       650.0       720.0       850.0       950.0    
   6    925.0       800.0       650.0       600.0       550.0       600.0       650.0       720.0       850.0       970.0    
   7    925.0       800.0       650.0       600.0       550.0       600.0       650.0       720.0       950.0       0.000    
   8    0.000       850.0       700.0       650.0       570.0       600.0       700.0       850.0       950.0       0.000    
   9    0.000       850.0       700.0       650.0       540.0       580.0       700.0       850.0       950.0       0.000    
  10    0.000       850.0       700.0       630.0       530.0       580.0       650.0       800.0       900.0       950.0    
  11    0.000       850.0       700.0       620.0       580.0       620.0       700.0       800.0       900.0       0.000    
  12    900.0       830.0       710.0       640.0       600.0       650.0       700.0       800.0       900.0       0.000    
  13    900.0       810.0       750.0       700.0       650.0       700.0       750.0       800.0       900.0       0.000    
  14    0.000       950.0       850.0       850.0       850.0       850.0       850.0       850.0       850.0       0.000    
  15    0.000       0.000       950.0       950.0       950.0       950.0       0.000       0.000       0.000       0.000    


 STRESS PERIOD     LENGTH       TIME STEPS     MULTIPLIER FOR DELT    SS FLAG
 ----------------------------------------------------------------------------
        1         86400.00          1                    1.000         SS
        2         2630000.         30                    1.000         TR
        3         2630000.         30                    1.000         TR
        4         2630000.         30                    1.000         TR
        5         2630000.         30                    1.000         TR
        6         2630000.         30                    1.000         TR
        7         2630000.         30                    1.000         TR
        8         2630000.         30                    1.000         TR
        9         2630000.         30                    1.000         TR
       10         2630000.         30                    1.000         TR
       11         2630000.         30                    1.000         TR
       12         2630000.         30                    1.000         TR
       13         2630000.         30                    1.000         TR
       14         2630000.         30                    1.000         TR
       15         2630000.         30                    1.000         TR
       16         2630000.         30                    1.000         TR
       17         2630000.         30                    1.000         TR
       18         2630000.         30                    1.000         TR
       19         2630000.         30                    1.000         TR
       20         2630000.         30                    1.000         TR
       21         2630000.         30                    1.000         TR
       22         2630000.         30                    1.000         TR
       23         2630000.         30                    1.000         TR
       24         2630000.         30                    1.000         TR
       25         2630000.         30                    1.000         TR
       26         2630000.         30                    1.000         TR
       27         2630000.         30                    1.000         TR
       28         2630000.         30                    1.000         TR
       29         2630000.         30                    1.000         TR
       30         2630000.         30                    1.000         TR
       31         2630000.         30                    1.000         TR
       32         2630000.         30                    1.000         TR
       33         2630000.         30                    1.000         TR
       34         2630000.         30                    1.000         TR
       35         2630000.         30                    1.000         TR
       36         2630000.         30                    1.000         TR
       37         2630000.         30                    1.000         TR
       38         2630000.         30                    1.000         TR
       39         2630000.         30                    1.000         TR
       40         2630000.         30                    1.000         TR
       41         2630000.         30                    1.000         TR
       42         2630000.         30                    1.000         TR
       43         2630000.         30                    1.000         TR
       44         2630000.         30                    1.000         TR
       45         2630000.         30                    1.000         TR
       46         2630000.         30                    1.000         TR
       47         2630000.         30                    1.000         TR
       48         2630000.         30                    1.000         TR
       49         2630000.         30                    1.000         TR

 COMBINED STEADY-STATE AND TRANSIENT SIMULATION



 
 #Test Simulation 2-- Example problem using the UZF1 Package                     
 #Modified from example Problem 1 of SFR1 documentation report                   
 THE FREE FORMAT OPTION HAS BEEN SELECTED



                     BOUNDARY ARRAY FOR LAYER   1
 READING ON UNIT   75 WITH FORMAT: (20I4)              

                1           2           3           4           5           6           7           8           9          10
 ............................................................................................................................
   1            1           1           0           0           0           0           0           0           0           0
   2            1           1           1           0           0           1           1           1           0           0
   3            0           1           1           1           1           1           1           1           0           0
   4            1           1           1           1           1           1           1           1           1           0
   5            1           1           1           1           1           1           1           1           1           1
   6            1           1           1           1           1           1           1           1           1           1
   7            1           1           1           1           1           1           1           1           1           0
   8            0           1           1           1           1           1           1           1           1           0
   9            0           1           1           1           1           1           1           1           1           0
  10            0           1           1           1           1           1           1           1           1           1
  11            0           1           1           1           1           1           1           1           1           0
  12            1           1           1           1           1           1           1           1           1           0
  13            1           1           1           1           1           1           1           1           1           0
  14            0           1           1           1           1           1           1           1           1           0
  15            0           0           1           1           1           1           0           0           0           0

 AQUIFER HEAD WILL BE SET TO   6999.0     AT ALL NO-FLOW NODES (IBOUND=0).



                       INITIAL HEAD FOR LAYER   1
 READING ON UNIT   75 WITH FORMAT: (10F8.0)            

            1           2           3           4           5           6           7           8           9          10
 ........................................................................................................................
   1    1093.       1089.       6999.       6999.       6999.       6999.       6999.       6999.       6999.       6999.    
   2    1090.       1087.       1081.       6999.       6999.       1072.       1071.       1071.       6999.       6999.    
   3    6999.       1079.       1078.       1074.       1072.       1071.       1069.       1068.       6999.       6999.    
   4    1069.       1071.       1070.       1067.       1065.       1064.       1064.       1066.       1066.       6999.    
   5    1065.       1064.       1063.       1062.       1061.       1061.       1060.       1062.       1066.       1068.    
   6    1060.       1058.       1057.       1056.       1056.       1057.       1057.       1059.       1062.       1066.    
   7    1056.       1053.       1052.       1051.       1051.       1052.       1053.       1055.       1056.       6999.    
   8    6999.       1046.       1046.       1046.       1046.       1046.       1048.       1050.       1050.       6999.    
   9    6999.       1039.       1039.       1039.       1040.       1041.       1042.       1043.       1044.       6999.    
  10    6999.       1031.       1032.       1033.       1034.       1035.       1037.       1038.       1039.       1042.    
  11    6999.       1021.       1023.       1027.       1029.       1030.       1032.       1034.       1036.       6999.    
  12    1001.       1009.       1015.       1020.       1023.       1026.       1029.       1030.       1034.       6999.    
  13    994.5      1000.0       1007.       1013.       1019.       1024.       1029.       1034.       1036.       6999.    
  14    6999.       1004.       1009.       1014.       1019.       1024.       1029.       1035.       1039.       6999.    
  15    6999.       6999.       1012.       1015.       1019.       1022.       6999.       6999.       6999.       6999.    

 OUTPUT CONTROL IS SPECIFIED ONLY AT TIME STEPS FOR WHICH OUTPUT IS DESIRED
 HEADS WILL BE SAVED WITH FORMAT: (10F10.3)           
 SAVED HEADS WILL BE LABELED
 COMPACT CELL-BY-CELL BUDGET FILES WILL BE WRITTEN
 HEAD PRINT FORMAT CODE IS   4    DRAWDOWN PRINT FORMAT CODE IS   0
 HEADS WILL BE SAVED ON UNIT   62    DRAWDOWNS WILL BE SAVED ON UNIT    0
 # NWT Input File
 # Test Problem 3 for MODFLOW-NWT
 #HEADTOL  FLUXTOL MAXITEROUT THICKFACT LINMETH IPRNWT IBOTAV OPTIONS DBDREDUCE DBDINCREASE DBDGAMMA MOMFACT BACKFLAG MAXBACKITER BACKTOL BACKREDUCE

 NWT1 -- Newton Solver, VERSION 1.1.4, 4/01/2018
         INPUT READ FROM UNIT 13

 SPECIFIED OPTION:
 SOLVER INPUT VALUES ARE SPECIFIED BY USER
 ***XMD linear solver will be used***
 
   CONVERGENCE CRITERION OF   0.100000E-03 FOR HEAD SOLUTION
   AND A TOLERANCE OF   0.100000E+01 FOR FLOW SOLUTION AND 
   A MAXIMUM OF   500 OUTER ITERATIONS. 


   D-B-D REDUCTION FACTOR OF    0.970000E+00 AND 
   A D-B-D INCREASE FACTOR OF    0.100000E-04 AND 
   A D-B-D RELAXATION OF    0.000000E+00 AND 
   A MOMENTUM FACTOR OF    0.100000E+00 .


 ***BACKTRACKING IS INACTIVE***
 XMD -- LINEAR SOLUTION BY XMD PACKAGE VERSION 1.30
     BY MOTOMU IBARAKI, OHIO STATE UNIVERSITY, COLOMBUS, OH
                 INPUT READ FROM UNIT 13
 ACCELERATION METHOD                    (IACL) =         1
 NODE ORDERING FLAG                   (NORDER) =         0
 LEVEL OF FILL                         (LEVEL) =         7
 MAXIMUM NUMBER OF ORTHOGONALIZATIONS  (NORTH) =         7
 INDEX FOR USING REDUCED SYSTEM      (IREDSYS) =         1
 RESID. REDUCTION CONVERGE CRITERION  (RRCTOL) =  0.000000E+00
 INDEX FOR USING DROP TOLERANCE     (IDROPTOL) =         1
 DROP TOLERANCE VALUE                  (EPSRN) =  0.500000E-02
 CONVERGENCE CRITERIA OF           (HCLOSEXMD) =  0.100000E-03
 MAX. NUMBER OF LINEAR ITERATIONS  (MXITERXMD) =        50


 UPW1 -- UPSTREAM WEIGHTING FLOW PACKAGE, VERSION 1.1.4, 4/01/2018
         INPUT READ FROM UNIT  7

 #Layer-Property Flow Package input for test simulation 2
 CELL-BY-CELL FLOWS WILL BE SAVED ON UNIT  102
 No named parameters

   LAYER FLAGS:
 LAYER       LAYTYP          LAYAVG    CHANI           LAYVKA           LAYWET
 ---------------------------------------------------------------------------
    1             1             0     1.000E+00             0             0

   INTERPRETATION OF LAYER FLAGS:
                        INTERBLOCK     HORIZONTAL    DATA IN
         LAYER TYPE   TRANSMISSIVITY   ANISOTROPY   ARRAY VKA   WETTABILITY
 LAYER   (LAYTYP)        (LAYAVG)      (CHANI)     (LAYVKA)       (LAYWET)
 ---------------------------------------------------------------------------
    1   CONVERTIBLE      HARMONIC     1.000E+00    VERTICAL K  NON-WETTABLE



              HYD. COND. ALONG ROWS FOR LAYER   1
 READING ON UNIT    7 WITH FORMAT: (10F5.0)            

            1           2           3           4           5           6           7           8           9          10
 ........................................................................................................................
   1   2.0000E-03  2.0000E-03   0.000       0.000       0.000       0.000       0.000       0.000       0.000       0.000    
   2   4.0000E-04  2.0000E-03  2.0000E-03   0.000       0.000      4.0000E-04  4.0000E-04  4.0000E-04   0.000       0.000    
   3    0.000      4.0000E-04  2.0000E-03  2.0000E-03  4.0000E-04  4.0000E-04  4.0000E-04  4.0000E-04   0.000       0.000    
   4   4.0000E-04  4.0000E-04  4.0000E-04  2.0000E-03  2.0000E-03  2.0000E-03  4.0000E-04  4.0000E-04  4.0000E-04   0.000    
   5   4.0000E-04  4.0000E-04  4.0000E-04  2.0000E-03  2.0000E-03  2.0000E-03  2.0000E-03  2.0000E-03  2.0000E-03  2.0000E-03
   6   4.0000E-04  4.0000E-04  4.0000E-04  2.0000E-03  2.0000E-03  2.0000E-03  2.0000E-03  2.0000E-03  4.0000E-04  4.0000E-04
   7   4.0000E-04  4.0000E-04  4.0000E-04  2.0000E-03  2.0000E-03  2.0000E-03  2.0000E-03  2.0000E-03  4.0000E-04   0.000    
   8    0.000      4.0000E-04  4.0000E-04  2.0000E-03  2.0000E-03  2.0000E-03  2.0000E-03  4.0000E-04  4.0000E-04   0.000    
   9    0.000      4.0000E-04  4.0000E-04  2.0000E-03  2.0000E-03  2.0000E-03  2.0000E-03  4.0000E-04  4.0000E-04   0.000    
  10    0.000      4.0000E-04  4.0000E-04  2.0000E-03  2.0000E-03  2.0000E-03  2.0000E-03  4.0000E-04  4.0000E-04  4.0000E-04
  11    0.000      4.0000E-04  4.0000E-04  2.0000E-03  2.0000E-03  2.0000E-03  2.0000E-03  4.0000E-04  4.0000E-04   0.000    
  12   4.0000E-04  4.0000E-04  2.0000E-03  2.0000E-03  2.0000E-03  2.0000E-03  2.0000E-03  4.0000E-04  4.0000E-04   0.000    
  13   2.0000E-03  2.0000E-03  2.0000E-03  2.0000E-03  2.0000E-03  2.0000E-03  2.0000E-03  2.0000E-03  2.0000E-03   0.000    
  14    0.000      4.0000E-04  4.0000E-04  4.0000E-04  4.0000E-04  4.0000E-04  4.0000E-04  4.0000E-04  2.0000E-03   0.000    
  15    0.000       0.000      4.0000E-04  4.0000E-04  4.0000E-04  4.0000E-04   0.000       0.000       0.000       0.000    

      VERTICAL HYD. COND. =  1.000000E-06 FOR LAYER   1

         SPECIFIC STORAGE =  1.000000E-06 FOR LAYER   1



                     SPECIFIC YIELD FOR LAYER   1
 READING ON UNIT    7 WITH FORMAT: (10F5.0)            

            1           2           3           4           5           6           7           8           9          10
 ........................................................................................................................
   1   0.2000      0.2000       0.000       0.000       0.000       0.000       0.000       0.000       0.000       0.000    
   2   0.1000      0.2000      0.2000       0.000       0.000      0.1000      0.1000      0.1000       0.000       0.000    
   3    0.000      0.1000      0.2000      0.2000      0.1000      0.1000      0.1000      0.1000       0.000       0.000    
   4   0.1000      0.1000      0.1000      0.2000      0.2000      0.2000      0.1000      0.1000      0.1000       0.000    
   5   0.1000      0.1000      0.1000      0.2000      0.2000      0.2000      0.2000      0.2000      0.2000      0.2000    
   6   0.1000      0.1000      0.1000      0.2000      0.2000      0.2000      0.2000      0.2000      0.1000      0.1000    
   7   0.1000      0.1000      0.1000      0.2000      0.2000      0.2000      0.2000      0.2000      0.1000       0.000    
   8    0.000      0.1000      0.1000      0.2000      0.2000      0.2000      0.2000      0.1000      0.1000       0.000    
   9    0.000      0.1000      0.1000      0.2000      0.2000      0.2000      0.2000      0.1000      0.1000       0.000    
  10    0.000      0.1000      0.1000      0.2000      0.2000      0.2000      0.2000      0.1000      0.1000      0.1000    
  11    0.000      0.1000      0.1000      0.2000      0.2000      0.2000      0.2000      0.1000      0.1000       0.000    
  12   0.1000      0.1000      0.2000      0.2000      0.2000      0.2000      0.2000      0.1000      0.1000       0.000    
  13   0.2000      0.2000      0.2000      0.2000      0.2000      0.2000      0.2000      0.2000      0.2000       0.000    
  14    0.000      0.1000      0.1000      0.1000      0.1000      0.1000      0.1000      0.1000      0.2000       0.000    
  15    0.000       0.000      0.1000      0.1000      0.1000      0.1000       0.000       0.000       0.000       0.000    

 GHB -- GENERAL-HEAD BOUNDARY PACKAGE, VERSION 7, 5/2/2005
         INPUT READ FROM UNIT   17
 No named parameters
 MAXIMUM OF      2 ACTIVE GHB CELLS AT ONE TIME
 CELL-BY-CELL FLOWS WILL BE PRINTED WHEN ICBCFL NOT 0


     0 GHB parameters

 SFR7 -- STREAMFLOW ROUTING PACKAGE, VERSION 1.0.5, 2012-04-05
         INPUT READ FROM UNIT  15
 #SFR2 Package input for Testing supplimental pumping and irrigation
 No named parameters

 PROCESSING SFR2 OPTIONS
 
          2 Specified inflow files will be read with a maximum of       1446 row entries per file
 
Stream loss will be calculated as a factor of the streambed hydraulic conductivity. Multiplication factor is equal to     0.1000000015E+00

 END PROCESSING SFR2 OPTIONS
 


 NUMBER OF STREAM REACHES IS   38

 NUMBER OF STREAM SEGMENTS IS    9

 NUMBER OF STREAM PARAMETERS IS    0

 NUMBER OF STREAM SEGMENTS DEFINED USING PARAMETERS IS              0

 MAXIMUM ERROR FOR STREAM LEAKAGE RATES IS  1.00E-06

 CONSTANT FOR MANNINGS EQUATION IS  1.4860E+00



 STREAM OUTPUT WILL BE WRITTEN TO FILE ON UNIT   81


   STREAM NETWORK DESCRIPTION: 

   LAYER    ROW    COL   SEGMENT   REACH     LENGTH
                          NUMBER   NUMBER    IN CELL        
   --------------------------------------------------
      1      1      1       1        1    4.5000E+03
      1      2      2       1        2    7.0000E+03
      1      3      3       1        3    6.0000E+03
      1      3      4       1        4    5.5500E+03
      1      4      5       2        1    6.5000E+03
      1      5      6       2        2    5.0000E+03
      1      6      6       2        3    5.0000E+03
      1      7      6       2        4    5.0000E+03
      1      8      6       2        5    5.0000E+03
      1      3      5       3        1    5.0000E+03
      1      3      6       3        2    5.0000E+03
      1      3      7       3        3    4.5000E+03
      1      4      8       3        4    6.0000E+03
      1      5      8       3        5    5.0000E+03
      1      6      8       3        6    2.0000E+03
      1      5     10       4        1    2.5000E+03
      1      5      9       4        2    5.0000E+03
      1      6      8       4        3    3.5000E+03
      1      6      8       5        1    4.0000E+03
      1      7      7       5        2    5.0000E+03
      1      8      7       5        3    3.5000E+03
      1      8      6       5        4    2.5000E+03
      1      9      6       6        1    5.0000E+03
      1     10      7       6        2    5.0000E+03
      1     11      7       6        3    5.0000E+03
      1     12      7       6        4    5.0000E+03
      1     13      7       6        5    2.0000E+03
      1     14      9       7        1    5.0000E+03
      1     13      8       7        2    5.5000E+03
      1     13      7       7        3    5.0000E+03
      1     13      6       8        1    5.0000E+03
      1     13      5       8        2    5.0000E+03
      1     13      4       8        3    5.0000E+03
      1     13      3       8        4    5.0000E+03
      1     13      2       8        5    5.0000E+03
      1     13      1       8        6    3.0000E+03
      1      8      6       9        1    3.0000E+03
      1      8      5       9        2    3.0000E+03




 UZF1 -- UNSATURATED FLOW PACKAGE, VERSION 1.5, 09/10/2019
         INPUT READ FROM UNIT 19
 #UZF Package input for test simulation 2
 No named parameters

 PROCESSING UZF OPTIONS
 
 
 INITIAL WATER CONTENT (THTI) WILL BE 
READ FOR THE FIRST SS OR TR STRESS PERIOD
 
 
 RESIDUAL WATER CONTENT (THTR) WILL BE 
READ AND USED FOR THE FIRST TRANSIENT STRESS 
PERIOD
 
 
AIR ENTRY PRESSURE AND ROOT PRESSURE WILL BE 
SPECIFIED BY USER AND UZ ET WILL BE SIMULATED 
AS PRESSURE-HEAD DEPENDENT
 
 
INFILTRATION WILL BE REJECTED USING 
LAND SURFACE K
 
 
HYDRAULIC CONDUCTIVITY OF LAND SURFACE 
WILL BE READ
 

 END PROCESSING UZF OPTIONS



            AREAL EXTENT OF UZ FLOW
 READING ON UNIT   19 WITH FORMAT: (20I4)              

                1           2           3           4           5           6           7           8           9          10
 ............................................................................................................................
   1            1           1           0           0           0           0           0           0           0           0
   2            1           1           1           0           0           1           1           1           0           0
   3            0           1           1           1           1           1           1           1           0           0
   4            1           1           1           1           1           1           1           1           1           0
   5            1           1           1           1           1           1           1           1           1           1
   6            1           1           1           1           1           1           1           1           1           1
   7            1           1           1           1           1           1           1           1           1           0
   8            0           1           1           1           1           1           1           1           1           0
   9            0           1           1           1           1           1           1           1           1           0
  10            0           1           1           1           1           1           1           1           1           1
  11            0           1           1           1           1           1           1           1           1           0
  12            1           1           1           1           1           1           1           1           1           0
  13            1           1           1           1           1           1           1           1           1           0
  14            0           1           1           1           1           1           1           1           1           0
  15            0           0           1           1           1           1           0           0           0           0
 OPTION 1 -- RECHARGE IN UZF TO TOP LAYER ONLY 



            ROUTING OVERLAND RUNOFF
 READING ON UNIT   19 WITH FORMAT: (20I4)              

                1           2           3           4           5           6           7           8           9          10
 ............................................................................................................................
   1            1           1           0           0           0           0           0           0           0           0
   2            1           1           1           0           0           3           3           3           0           0
   3            0           1           1           1           3           3           3           3           0           0
   4            8           8           2           2           2           2           2           3           3           0
   5            8           8           8           8           2           2           2           3           4           4
   6            8           8           8           8           8           2           2           4           4           4
   7            8           8           8           8           8           2           5           5           5           0
   8            0           8           8           8           8           2           5           5           5           0
   9            0           8           8           8           8           6           6           6           6           0
  10            0           8           8           8           8           6           6           6           6           6
  11            0           8           8           8           8           8           6           6           7           0
  12            8           8           8           8           8           8           6           7           7           0
  13            8           8           8           8           8           8           7           7           7           0
  14            0           8           8           8           8           8           7           7           7           0
  15            0           0           8           8           8           8           0           0           0           0



               SATURATED VERTICAL K
 READING ON UNIT   19 WITH FORMAT: (10F4.0)            

            1           2           3           4           5           6           7           8           9          10
 ........................................................................................................................
   1   4.6000E-05  4.6000E-05   0.000       0.000       0.000       0.000       0.000       0.000       0.000       0.000    
   2   4.6000E-05  4.6000E-05  4.6000E-05   0.000       0.000      4.6000E-05  4.6000E-05  4.6000E-05   0.000       0.000    
   3    0.000      4.6000E-05  4.6000E-05  4.6000E-05  4.6000E-05  4.6000E-05  4.6000E-05  4.6000E-05   0.000       0.000    
   4   4.6000E-05  4.6000E-05  4.6000E-05  4.6000E-05  4.6000E-05  4.6000E-05  4.6000E-05  4.6000E-05  4.6000E-05   0.000    
   5   4.6000E-05  4.6000E-05  4.6000E-05  4.6000E-05  4.6000E-05  4.6000E-05  4.6000E-05  4.6000E-05  4.6000E-05  4.6000E-05
   6   4.6000E-05  4.6000E-05  4.6000E-05  4.6000E-05  4.6000E-05  4.6000E-05  4.6000E-05  4.6000E-05  4.6000E-05  4.6000E-05
   7   4.6000E-05  4.6000E-05  4.6000E-05  4.6000E-05  4.6000E-05  4.6000E-05  4.6000E-05  4.6000E-05  4.6000E-05   0.000    
   8    0.000      4.6000E-05  4.6000E-05  4.6000E-05  4.6000E-05  4.6000E-05  4.6000E-05  4.6000E-05  4.6000E-05   0.000    
   9    0.000      4.6000E-05  4.6000E-05  4.6000E-05  4.6000E-05  4.6000E-05  4.6000E-05  4.6000E-05  4.6000E-05   0.000    
  10    0.000      4.6000E-05  4.6000E-05  4.6000E-05  4.6000E-05  4.6000E-05  4.6000E-05  4.6000E-05  4.6000E-05  4.6000E-05
  11    0.000      4.6000E-05  4.6000E-05  4.6000E-05  4.6000E-05  4.6000E-05  4.6000E-05  4.6000E-05  4.6000E-05   0.000    
  12   4.6000E-05  4.6000E-05  4.6000E-05  4.6000E-05  4.6000E-05  4.6000E-05  4.6000E-05  4.6000E-05  4.6000E-05   0.000    
  13   4.6000E-05  4.6000E-05  4.6000E-05  4.6000E-05  4.6000E-05  4.6000E-05  4.6000E-05  4.6000E-05  4.6000E-05   0.000    
  14    0.000      4.6000E-05  4.6000E-05  4.6000E-05  4.6000E-05  4.6000E-05  4.6000E-05  4.6000E-05  4.6000E-05   0.000    
  15    0.000       0.000      4.6000E-05  4.6000E-05  4.6000E-05  4.6000E-05   0.000       0.000       0.000       0.000    



            LAND SURFACE VERTICAL K
 READING ON UNIT   19 WITH FORMAT: (10F4.0)            

            1           2           3           4           5           6           7           8           9          10
 ........................................................................................................................
   1   1.0000E-05  1.0000E-05   0.000       0.000       0.000       0.000       0.000       0.000       0.000       0.000    
   2   1.0000E-05  1.0000E-05  1.0000E-05   0.000       0.000      1.0000E-05  1.0000E-05  1.0000E-05   0.000       0.000    
   3    0.000      1.0000E-05  1.0000E-05  1.0000E-05  1.0000E-05  1.0000E-05  1.0000E-05  1.0000E-05   0.000       0.000    
   4   1.0000E-05  1.0000E-05  1.0000E-05  1.0000E-05  1.0000E-05  1.0000E-05  1.0000E-05  1.0000E-05  1.0000E-05   0.000    
   5   1.0000E-05  1.0000E-05  1.0000E-05  1.0000E-05  1.0000E-05  1.0000E-05  1.0000E-05  1.0000E-05  1.0000E-05  1.0000E-05
   6   1.0000E-05  1.0000E-05  1.0000E-05  1.0000E-05  1.0000E-05  1.0000E-05  1.0000E-05  1.0000E-05  1.0000E-05  1.0000E-05
   7   1.0000E-05  1.0000E-05  1.0000E-05  1.0000E-05  1.0000E-05  1.0000E-05  1.0000E-05  1.0000E-05  1.0000E-05   0.000    
   8    0.000      1.0000E-05  1.0000E-05  1.0000E-05  1.0000E-05  1.0000E-05  1.0000E-05  1.0000E-05  1.0000E-05   0.000    
   9    0.000      1.0000E-05  1.0000E-05  1.0000E-05  1.0000E-05  1.0000E-05  1.0000E-05  1.0000E-05  1.0000E-05   0.000    
  10    0.000      1.0000E-05  1.0000E-05  1.0000E-05  1.0000E-05  1.0000E-05  1.0000E-05  1.0000E-05  1.0000E-05  1.0000E-05
  11    0.000      1.0000E-05  1.0000E-05  1.0000E-05  1.0000E-05  1.0000E-05  1.0000E-05  1.0000E-05  1.0000E-05   0.000    
  12   1.0000E-05  1.0000E-05  1.0000E-05  1.0000E-05  1.0000E-05  1.0000E-05  1.0000E-05  1.0000E-05  1.0000E-05   0.000    
  13   1.0000E-05  1.0000E-05  1.0000E-05  1.0000E-05  1.0000E-05  1.0000E-05  1.0000E-05  1.0000E-05  1.0000E-05   0.000    
  14    0.000      1.0000E-05  1.0000E-05  1.0000E-05  1.0000E-05  1.0000E-05  1.0000E-05  1.0000E-05  1.0000E-05   0.000    
  15    0.000       0.000      1.0000E-05  1.0000E-05  1.0000E-05  1.0000E-05   0.000       0.000       0.000       0.000    

     BROOKS-COREY EPSILON =   7.50000    

  SATURATED WATER CONTENT =  0.380000    

   RESIDUAL WATER CONTENT =  0.200000    

    INITIAL WATER CONTENT =  0.200000    

UNSATURATED FLOW RESULTS WILL BE PRINTED TO SEPARATE FILES FOR SELECTED MODEL CELLS, AND TIME STEPS AS DEFINED BY OUTPUT CONTROL PACKAGE 

SELECTED MODEL CELLS ARE: 
 ROW NUMBER  COLUMN NUMBER  FORTRAN UNIT NUMBER  OUTPUT OPTION


       6             4                 65                 1
       6             5                 66                 2
       8             4                 67                 3
       0             0                 68                 4



   9 GAGING STATIONS WERE SPECIFIED.
     (Lakes are identified by a negative value of the Lake Number)
     RECORDS WILL BE WRITTEN TO SEPARATE OUTPUT FILES REPRESENTED BY FOLLOWING UNIT NUMBERS:

 Stream Gages:
  GAGE #   SEGMENT   REACH   UNIT   OUTTYPE
       1       1       4      83       1
       2       2       5      84       1
       3       3       5      85       1
       4       4       3      86       1
       5       5       4      87       4
       6       6       5      88       4
       7       7       3      89       4
       8       8       6      90       4
       9       9       1      91       5





 AG -- AG PACKAGE FOR NWT VERSION 1.2.0,  3/03/2020 INPUT READ FROM UNIT   57
 # AG options

 PROCESSING AG OPTIONS
 
 AGRICULTURAL DEMANDS WILL BE CALCULATED USING ET DEFICIT
 
 
 OPTION TO APPLY SURFACE WATER AS IRRIGATION IS ACTIVE. DIVERTED SURFACE WATER WILL BE APPLIED TO          1 CELLS/RHUS.
 
 
 OPTION TO PUMP SUPPLEMENTARY WATER FOR SURFACE DIVERSION SHORTFALL IS ACTIVATED.  A TOTAL OF             6 SUPPLEMENTAL WELLS ARE ACTIVE
 
 
 OPTION TO APPLY PUMPED WATER AS IRRIGATION IS ACTIVE. PUMPED IRRIGATION WATER WILL BE APPLIED TO          6 CELLS/RHUS.
 
 
 THE MAXIMUM NUMBER OF WELLS FOR SUPPLEMENTING DIVERSIONS OR APPLYING IRRIGATION IS          6 WELLS.
 
 
  UNFORMATTED CELL BY CELL RATES FOR SUP AND IRR WELLS WILL BE SAVED TO FILE UNIT NUMBER         -2
 
 
  UNFORMATTED CELL BY CELL RATES FOR SUP AND IRR WELLS WILL BE SAVED TO FILE UNIT NUMBER         -2
 
 
  UNFORMATTED CELL BY CELL RATES FOR SUP AND IRR WELLS WILL BE SAVED TO FILE UNIT NUMBER         -2
 
 
  UNFORMATTED CELL BY CELL RATES FOR SUP AND IRR WELLS WILL BE SAVED TO FILE UNIT NUMBER         -2
 
 
  GROUND WATER IRRIGATION, POTENTIAL AND ACTUAL ET WILL BE SAVED TO TIMES SERIES OUTPUT FILES.
 
 
  SURFACE WATER IRRIGATION, POTENTIAL AND ACTUAL ET WILL BE SAVED TO TIMES SERIES OUTPUT FILES.
 
 
  SURFACE WATER IRRIGATION, POTENTIAL AND ACTUAL ET WILL BE SAVED TO TIMES SERIES OUTPUT FILES.
 

 END PROCESSING AG OPTIONS
 # AG time series

 PROCESSING TIME SERIES

 FINISHED READING TIME SERIES
 A total number of          1 AG output time series files were activated for SURFACE WATER 
 A total number of          1 AG output time series files were activated for GROUNDWATER 
 A total number of          1 AG output time series files were activated for SURFACE WATER ET
 A total number of          0 AG output time series files were activated for GROUNDWATER ET
 A total number of          0 AG output time series files were activated for POND ET
 A total number of          0 AG output time series files were activated for POND IRRIGATION
 No ponds active in the AG Package
1
                            STRESS PERIOD NO.    1, LENGTH =   86400.00    
                            -----------------------------------------------

                              NUMBER OF TIME STEPS =     1

                               MULTIPLIER FOR DELT =     1.000

                            INITIAL TIME STEP SIZE =   86400.00    

 BOUND. NO. LAYER   ROW   COL     STAGE      CONDUCTANCE         
 ----------------------------------------------------------------
      1      1     13      1       988.0          0.3800E-01
      2      1     14      9       1045.          0.3800E-01

      2 GHB CELLS



 CLASSIFICATION & COUNT OF STREAM SEGMENTS BASED ON SOURCE OF INFLOW:

                HEADWATER     DIVERSION     RECEIVES TRIBUTARY FLOW
                ---------     ---------     -----------------------
                     3              2               4



                    INPUT DATA FOR EACH STREAM SEGMENT
 ---------------------------------------------------------------------------------------------

 SEGMENT    SEG.     INFLOW   OVERLAND   STREAM    STREAM   ICALC  OUTFLOW  DIVERSION PRIORITY
    NO.    LENGTH     RATE     RUNOFF      ET       PPT.    METH.  TO SEG.  FROM SEG.    NO.

      1  2.305E+04 2.500E+01 0.000E+00 0.000E+00 0.000E+00    4        2        0        0
      2  2.650E+04 0.000E+00 0.000E+00 0.000E+00 0.000E+00    1        6        0        0
      3  2.750E+04 2.000E+00 0.000E+00 0.000E+00 0.000E+00    0        5        1        0
      4  1.100E+04 1.000E+01 0.000E+00 0.000E+00 0.000E+00    1        5        0        0
      5  1.500E+04 0.000E+00 0.000E+00 0.000E+00 0.000E+00    3        6        0        0
      6  2.200E+04 0.000E+00 0.000E+00 0.000E+00 0.000E+00    1        8        0        0
      7  1.550E+04 1.500E+02 0.000E+00 0.000E+00 0.000E+00    2        8        0        0
      8  2.800E+04 0.000E+00 0.000E+00 0.000E+00 0.000E+00    2        0        0        0
      9  6.000E+03 0.000E+00 0.000E+00 0.000E+00 0.000E+00    1        0        2        0


         STREAMBED PROPERTIES AND STREAM DIMENSIONS

 SEGMENT     BED HYD. COND.      BED THICKNESS     ELEV.-TOP OF BED     WIDTH OF STREAM     DEPTH OF STREAM    STREAM ROUGHNESS
    No.     UPPER     LOWER     UPPER     LOWER     UPPER     LOWER     UPPER     LOWER     UPPER     LOWER   CHANNEL      BANK

     1  3.000E-05 3.000E-05 3.000E+00 3.000E+00 1.095E+03 1.075E+03
     2  3.000E-05 3.000E-05 3.000E+00 3.000E+00 1.075E+03 1.050E+03 1.200E+01 1.200E+01                     3.000E-02
     3  3.000E-05 3.000E-05 2.000E+00 2.000E+00 1.075E+03 1.060E+03 1.000E+01 6.000E+00 2.000E+00 1.000E+00
     4  3.000E-05 3.000E-05 3.000E+00 3.000E+00 1.080E+03 1.060E+03 1.000E+01 1.000E+01                     3.000E-02
     5  3.000E-05 3.000E-05 3.000E+00 3.000E+00 1.060E+03 1.045E+03
     6  3.000E-05 3.000E-05 3.000E+00 3.000E+00 1.045E+03 1.025E+03 1.200E+01 1.200E+01                     3.000E-02
     7  6.000E-05 6.000E-05 3.000E+00 3.000E+00 1.040E+03 1.025E+03                                         2.500E-02 4.500E-02
     8  6.000E-05 6.000E-05 3.000E+00 3.000E+00 1.025E+03 9.900E+02                                         2.500E-02 4.500E-02
     9  0.000E+00 0.000E+00 3.000E+00 3.000E+00 1.079E+03 1.078E+03 4.000E+00 4.000E+00                     3.000E-02

  EIGHT POINT CROSS-SECTION DATA FOR SEGMENTS WITH ICALC = 2
    X VALUES X VALUES START FROM LEFT SIDE LOOKING DOWNSTREAM

     SEGMENT NO.        X1        X2        X3        X4        X5        X6        X7        X8
            7      0.000E+00 1.000E+01 8.000E+01 1.000E+02 1.500E+02 1.700E+02 2.400E+02 2.500E+02
            8      0.000E+00 1.000E+01 8.000E+01 1.000E+02 1.500E+02 1.700E+02 2.400E+02 2.500E+02

    Z VALUES ARE RELATIVE TO STREAMBED ELEVATION

     SEGMENT NO.          Z1        Z2        Z3        Z4        Z5        Z6        Z7        Z8
            7      2.000E+01 1.300E+01 1.000E+01 2.000E+00 0.000E+00 1.000E+01 1.300E+01 2.000E+01
            8      2.500E+01 1.700E+01 1.300E+01 4.000E+00 0.000E+00 1.000E+01 1.600E+01 2.000E+01

 STREAMFLOW RELATION WITH DEPTH IS BASED ON EQUATION Q = CDPTH*(DEPTH)**FDPTH
 STREAMFLOW RELATION WITH WIDTH IS BASED ON EQUATION Q = AWDTH*(WIDTH)**BWDTH

 SEGMENT NO.      CDPTH     FDPTH    AWDTH     BWDTH

          5 3.000E-01 3.500E-01 3.800E+00 6.000E-01

 STREAMFLOW RELATION WITH DEPTH AND WIDTH IS BASED ON TABULATED VALUES

  SEGMENT NO.   STREAMFLOW       DEPTH       WIDTH

          1     5.0000E-01   2.5000E-01   3.0000E+00
          1     1.0000E+00   4.0000E-01   3.5000E+00
          1     2.0000E+00   5.5000E-01   4.2000E+00
          1     4.0000E+00   7.0000E-01   5.3000E+00
          1     7.0000E+00   8.0000E-01   7.0000E+00
          1     1.0000E+01   9.0000E-01   8.5000E+00
          1     2.0000E+01   1.1000E+00   1.2000E+01
          1     3.0000E+01   1.2500E+00   1.4000E+01
          1     5.0000E+01   1.4000E+00   1.7000E+01
          1     7.5000E+01   1.7000E+00   2.0000E+01
          1     1.0000E+02   1.8000E+00   2.2000E+01



TABULAR INFLOWS WERE READ FOR SEGMENT      1
FROM FILE UNIT NUMBER     55

          TIMES                    INFLOWS
         0.0000000000E+00     0.1875000000E+01
         0.8640000000E+05     0.8250000000E+01
         0.2760000000E+07     0.1575000000E+02
         0.5270000000E+07     0.2887500000E+02
         0.7950000000E+07     0.1050000000E+02
         0.1050000000E+08     0.3712500000E+02
         0.1320000000E+08     0.3112500000E+02
         0.1580000000E+08     0.2812500000E+02
         0.1850000000E+08     0.2287500000E+02
         0.2120000000E+08     0.1762500000E+02
         0.2380000000E+08     0.1312500000E+02
         0.2640000000E+08     0.9750000000E+01
         0.2900000000E+08     0.8625000000E+01
         0.3170000000E+08     0.7125000000E+01
         0.3440000000E+08     0.7875000000E+01
         0.3680000000E+08     0.3675000000E+02
         0.3950000000E+08     0.2812500000E+02
         0.4210000000E+08     0.2362500000E+02
         0.4480000000E+08     0.2175000000E+02
         0.4730000000E+08     0.2025000000E+02
         0.5000000000E+08     0.1387500000E+02
         0.5270000000E+08     0.9375000000E+01
         0.5530000000E+08     0.8250000000E+01
         0.5800000000E+08     0.7875000000E+01
         0.6060000000E+08     0.7500000000E+01
         0.6320000000E+08     0.7125000000E+01
         0.6330000000E+08     0.8250000000E+01
         0.6600000000E+08     0.1575000000E+02
         0.6850000000E+08     0.2887500000E+02
         0.7120000000E+08     0.1050000000E+02
         0.7370000000E+08     0.3712500000E+02
         0.7640000000E+08     0.3112500000E+02
         0.7900000000E+08     0.2812500000E+02
         0.8170000000E+08     0.2287500000E+02
         0.8440000000E+08     0.1762500000E+02
         0.8700000000E+08     0.1312500000E+02
         0.8960000000E+08     0.9750000000E+01
         0.9220000000E+08     0.8625000000E+01
         0.9490000000E+08     0.7125000000E+01
         0.9760000000E+08     0.7875000000E+01
         0.1000000000E+09     0.3675000000E+02
         0.1030000000E+09     0.2812500000E+02
         0.1050000000E+09     0.2362500000E+02
         0.1080000000E+09     0.2175000000E+02
         0.1110000000E+09     0.2025000000E+02
         0.1130000000E+09     0.1387500000E+02
         0.1160000000E+09     0.9375000000E+01
         0.1190000000E+09     0.8250000000E+01
         0.1210000000E+09     0.7875000000E+01
         0.1240000000E+09     0.7500000000E+01
         0.1260000000E+09     0.7125000000E+01
TABULAR INFLOWS WERE READ FOR SEGMENT      9
FROM FILE UNIT NUMBER     56

          TIMES                    INFLOWS
         0.0000000000E+00     0.1000000000E+03
         0.8640000000E+05     0.1000000000E+03
         0.1730000000E+06     0.1000000000E+03
         0.2590000000E+06     0.1000000000E+03
         0.3460000000E+06     0.1000000000E+03
         0.4320000000E+06     0.1000000000E+03
         0.5180000000E+06     0.1000000000E+03
         0.6050000000E+06     0.1000000000E+03
         0.6910000000E+06     0.1000000000E+03
         0.7780000000E+06     0.1000000000E+03
         0.8640000000E+06     0.1000000000E+03
         0.9500000000E+06     0.1000000000E+03
         0.1040000000E+07     0.1000000000E+03
         0.1120000000E+07     0.1000000000E+03
         0.1210000000E+07     0.1000000000E+03
         0.1300000000E+07     0.1000000000E+03
         0.1380000000E+07     0.1000000000E+03
         0.1470000000E+07     0.1000000000E+03
         0.1560000000E+07     0.1000000000E+03
         0.1640000000E+07     0.1000000000E+03
         0.1730000000E+07     0.1000000000E+03
         0.1810000000E+07     0.1000000000E+03
         0.1900000000E+07     0.1000000000E+03
         0.1990000000E+07     0.1000000000E+03
         0.2070000000E+07     0.1000000000E+03
         0.2160000000E+07     0.1000000000E+03
         0.2250000000E+07     0.1000000000E+03
         0.2330000000E+07     0.1000000000E+03
         0.2420000000E+07     0.1000000000E+03
         0.2510000000E+07     0.1000000000E+03
         0.2590000000E+07     0.1000000000E+03
         0.2680000000E+07     0.1000000000E+03
         0.2760000000E+07     0.1000000000E+03
         0.2850000000E+07     0.1000000000E+03
         0.2940000000E+07     0.1000000000E+03
         0.3020000000E+07     0.1000000000E+03
         0.3110000000E+07     0.1000000000E+03
         0.3200000000E+07     0.1000000000E+03
         0.3280000000E+07     0.1000000000E+03
         0.3370000000E+07     0.1000000000E+03
         0.3460000000E+07     0.1000000000E+03
         0.3540000000E+07     0.1000000000E+03
         0.3630000000E+07     0.1000000000E+03
         0.3720000000E+07     0.1000000000E+03
         0.3800000000E+07     0.1000000000E+03
         0.3890000000E+07     0.1000000000E+03
         0.3970000000E+07     0.1000000000E+03
         0.4060000000E+07     0.1000000000E+03
         0.4150000000E+07     0.1000000000E+03
         0.4230000000E+07     0.1000000000E+03
         0.4320000000E+07     0.1000000000E+03
         0.4410000000E+07     0.1000000000E+03
         0.4490000000E+07     0.1000000000E+03
         0.4580000000E+07     0.1000000000E+03
         0.4670000000E+07     0.1000000000E+03
         0.4750000000E+07     0.1000000000E+03
         0.4840000000E+07     0.1000000000E+03
         0.4920000000E+07     0.1000000000E+03
         0.5010000000E+07     0.1000000000E+03
         0.5100000000E+07     0.1000000000E+03
         0.5180000000E+07     0.1000000000E+03
         0.5270000000E+07     0.1000000000E+03
         0.5360000000E+07     0.1000000000E+03
         0.5440000000E+07     0.1000000000E+03
         0.5530000000E+07     0.1000000000E+03
         0.5620000000E+07     0.1000000000E+03
         0.5700000000E+07     0.1000000000E+03
         0.5790000000E+07     0.1000000000E+03
         0.5880000000E+07     0.1000000000E+03
         0.5960000000E+07     0.1000000000E+03
         0.6050000000E+07     0.1000000000E+03
         0.6130000000E+07     0.1000000000E+03
         0.6220000000E+07     0.1000000000E+03
         0.6310000000E+07     0.1000000000E+03
         0.6390000000E+07     0.1000000000E+03
         0.6480000000E+07     0.1000000000E+03
         0.6570000000E+07     0.1000000000E+03
         0.6650000000E+07     0.1000000000E+03
         0.6740000000E+07     0.1000000000E+03
         0.6830000000E+07     0.1000000000E+03
         0.6910000000E+07     0.1000000000E+03
         0.7000000000E+07     0.1000000000E+03
         0.7080000000E+07     0.1000000000E+03
         0.7170000000E+07     0.1000000000E+03
         0.7260000000E+07     0.1000000000E+03
         0.7340000000E+07     0.1000000000E+03
         0.7430000000E+07     0.1000000000E+03
         0.7520000000E+07     0.1000000000E+03
         0.7600000000E+07     0.1000000000E+03
         0.7690000000E+07     0.1000000000E+03
         0.7780000000E+07     0.1000000000E+03
         0.7860000000E+07     0.1000000000E+03
         0.7950000000E+07     0.1000000000E+03
         0.8040000000E+07     0.1000000000E+03
         0.8120000000E+07     0.1000000000E+03
         0.8210000000E+07     0.1000000000E+03
         0.8290000000E+07     0.1000000000E+03
         0.8380000000E+07     0.1000000000E+03
         0.8470000000E+07     0.1000000000E+03
         0.8550000000E+07     0.1000000000E+03
         0.8640000000E+07     0.1000000000E+03
         0.8730000000E+07     0.1000000000E+03
         0.8810000000E+07     0.1000000000E+03
         0.8900000000E+07     0.1000000000E+03
         0.8990000000E+07     0.1000000000E+03
         0.9070000000E+07     0.1000000000E+03
         0.9160000000E+07     0.1000000000E+03
         0.9240000000E+07     0.1000000000E+03
         0.9330000000E+07     0.1000000000E+03
         0.9420000000E+07     0.1000000000E+03
         0.9500000000E+07     0.1000000000E+03
         0.9590000000E+07     0.1000000000E+03
         0.9680000000E+07     0.1000000000E+03
         0.9760000000E+07     0.1000000000E+03
         0.9850000000E+07     0.1000000000E+03
         0.9940000000E+07     0.1000000000E+03
         0.1000000000E+08     0.1000000000E+03
         0.1010000000E+08     0.1000000000E+03
         0.1020000000E+08     0.1000000000E+03
         0.1030000000E+08     0.1000000000E+03
         0.1040000000E+08     0.1000000000E+03
         0.1050000000E+08     0.1000000000E+03
         0.1050000000E+08     0.1000000000E+03
         0.1060000000E+08     0.1000000000E+03
         0.1070000000E+08     0.1000000000E+03
         0.1080000000E+08     0.1000000000E+03
         0.1090000000E+08     0.1000000000E+03
         0.1100000000E+08     0.1000000000E+03
         0.1110000000E+08     0.1000000000E+03
         0.1110000000E+08     0.1000000000E+03
         0.1120000000E+08     0.1000000000E+03
         0.1130000000E+08     0.1000000000E+03
         0.1140000000E+08     0.1000000000E+03
         0.1150000000E+08     0.1000000000E+03
         0.1160000000E+08     0.1000000000E+03
         0.1170000000E+08     0.1000000000E+03
         0.1180000000E+08     0.1000000000E+03
         0.1180000000E+08     0.1000000000E+03
         0.1190000000E+08     0.1000000000E+03
         0.1200000000E+08     0.1000000000E+03
         0.1210000000E+08     0.1000000000E+03
         0.1220000000E+08     0.1000000000E+03
         0.1230000000E+08     0.1000000000E+03
         0.1240000000E+08     0.1000000000E+03
         0.1240000000E+08     0.1000000000E+03
         0.1250000000E+08     0.1000000000E+03
         0.1260000000E+08     0.1000000000E+03
         0.1270000000E+08     0.1000000000E+03
         0.1280000000E+08     0.1000000000E+03
         0.1290000000E+08     0.1000000000E+03
         0.1300000000E+08     0.1000000000E+03
         0.1300000000E+08     0.1000000000E+03
         0.1310000000E+08     0.1000000000E+03
         0.1320000000E+08     0.1000000000E+03
         0.1330000000E+08     0.1000000000E+03
         0.1340000000E+08     0.1000000000E+03
         0.1350000000E+08     0.1000000000E+03
         0.1360000000E+08     0.1000000000E+03
         0.1370000000E+08     0.1000000000E+03
         0.1370000000E+08     0.1000000000E+03
         0.1380000000E+08     0.1000000000E+03
         0.1390000000E+08     0.1000000000E+03
         0.1400000000E+08     0.1000000000E+03
         0.1410000000E+08     0.1000000000E+03
         0.1420000000E+08     0.1000000000E+03
         0.1430000000E+08     0.1000000000E+03
         0.1430000000E+08     0.1000000000E+03
         0.1440000000E+08     0.1000000000E+03
         0.1450000000E+08     0.1000000000E+03
         0.1460000000E+08     0.1000000000E+03
         0.1470000000E+08     0.1000000000E+03
         0.1480000000E+08     0.1000000000E+03
         0.1490000000E+08     0.1000000000E+03
         0.1490000000E+08     0.1000000000E+03
         0.1500000000E+08     0.1000000000E+03
         0.1510000000E+08     0.1000000000E+03
         0.1520000000E+08     0.1000000000E+03
         0.1530000000E+08     0.1000000000E+03
         0.1540000000E+08     0.1000000000E+03
         0.1550000000E+08     0.1000000000E+03
         0.1560000000E+08     0.1000000000E+03
         0.1560000000E+08     0.1000000000E+03
         0.1570000000E+08     0.1000000000E+03
         0.1580000000E+08     0.1000000000E+03
         0.1590000000E+08     0.1000000000E+03
         0.1600000000E+08     0.1000000000E+03
         0.1610000000E+08     0.1000000000E+03
         0.1620000000E+08     0.1000000000E+03
         0.1620000000E+08     0.1000000000E+03
         0.1630000000E+08     0.1000000000E+03
         0.1640000000E+08     0.1000000000E+03
         0.1650000000E+08     0.1000000000E+03
         0.1660000000E+08     0.1000000000E+03
         0.1670000000E+08     0.1000000000E+03
         0.1680000000E+08     0.1000000000E+03
         0.1680000000E+08     0.1000000000E+03
         0.1690000000E+08     0.1000000000E+03
         0.1700000000E+08     0.1000000000E+03
         0.1710000000E+08     0.1000000000E+03
         0.1720000000E+08     0.1000000000E+03
         0.1730000000E+08     0.1000000000E+03
         0.1740000000E+08     0.1000000000E+03
         0.1750000000E+08     0.1000000000E+03
         0.1750000000E+08     0.1000000000E+03
         0.1760000000E+08     0.1000000000E+03
         0.1770000000E+08     0.1000000000E+03
         0.1780000000E+08     0.1000000000E+03
         0.1790000000E+08     0.1000000000E+03
         0.1800000000E+08     0.1000000000E+03
         0.1810000000E+08     0.1000000000E+03
         0.1810000000E+08     0.1000000000E+03
         0.1820000000E+08     0.1000000000E+03
         0.1830000000E+08     0.1000000000E+03
         0.1840000000E+08     0.1000000000E+03
         0.1850000000E+08     0.1000000000E+03
         0.1860000000E+08     0.1000000000E+03
         0.1870000000E+08     0.1000000000E+03
         0.1870000000E+08     0.1000000000E+03
         0.1880000000E+08     0.1000000000E+03
         0.1890000000E+08     0.1000000000E+03
         0.1900000000E+08     0.1000000000E+03
         0.1910000000E+08     0.1000000000E+03
         0.1920000000E+08     0.1000000000E+03
         0.1930000000E+08     0.1000000000E+03
         0.1940000000E+08     0.1000000000E+03
         0.1940000000E+08     0.1000000000E+03
         0.1950000000E+08     0.1000000000E+03
         0.1960000000E+08     0.1000000000E+03
         0.1970000000E+08     0.1000000000E+03
         0.1980000000E+08     0.1000000000E+03
         0.1990000000E+08     0.1000000000E+03
         0.2000000000E+08     0.1000000000E+03
         0.2000000000E+08     0.1000000000E+03
         0.2010000000E+08     0.1000000000E+03
         0.2020000000E+08     0.1000000000E+03
         0.2030000000E+08     0.1000000000E+03
         0.2040000000E+08     0.1000000000E+03
         0.2050000000E+08     0.1000000000E+03
         0.2060000000E+08     0.1000000000E+03
         0.2070000000E+08     0.1000000000E+03
         0.2070000000E+08     0.1000000000E+03
         0.2080000000E+08     0.1000000000E+03
         0.2090000000E+08     0.1000000000E+03
         0.2100000000E+08     0.1000000000E+03
         0.2110000000E+08     0.1000000000E+03
         0.2120000000E+08     0.1000000000E+03
         0.2130000000E+08     0.1000000000E+03
         0.2130000000E+08     0.1000000000E+03
         0.2140000000E+08     0.1000000000E+03
         0.2150000000E+08     0.1000000000E+03
         0.2160000000E+08     0.1000000000E+03
         0.2170000000E+08     0.1000000000E+03
         0.2180000000E+08     0.1000000000E+03
         0.2190000000E+08     0.1000000000E+03
         0.2190000000E+08     0.1000000000E+03
         0.2200000000E+08     0.1000000000E+03
         0.2210000000E+08     0.1000000000E+03
         0.2220000000E+08     0.1000000000E+03
         0.2230000000E+08     0.1000000000E+03
         0.2240000000E+08     0.1000000000E+03
         0.2250000000E+08     0.1000000000E+03
         0.2260000000E+08     0.1000000000E+03
         0.2260000000E+08     0.1000000000E+03
         0.2270000000E+08     0.1000000000E+03
         0.2280000000E+08     0.1000000000E+03
         0.2290000000E+08     0.1000000000E+03
         0.2300000000E+08     0.1000000000E+03
         0.2310000000E+08     0.1000000000E+03
         0.2320000000E+08     0.1000000000E+03
         0.2320000000E+08     0.1000000000E+03
         0.2330000000E+08     0.1000000000E+03
         0.2340000000E+08     0.1000000000E+03
         0.2350000000E+08     0.1000000000E+03
         0.2360000000E+08     0.1000000000E+03
         0.2370000000E+08     0.1000000000E+03
         0.2380000000E+08     0.1000000000E+03
         0.2380000000E+08     0.1000000000E+03
         0.2390000000E+08     0.1000000000E+03
         0.2400000000E+08     0.1000000000E+03
         0.2410000000E+08     0.1000000000E+03
         0.2420000000E+08     0.1000000000E+03
         0.2430000000E+08     0.1000000000E+03
         0.2440000000E+08     0.1000000000E+03
         0.2450000000E+08     0.1000000000E+03
         0.2450000000E+08     0.1000000000E+03
         0.2460000000E+08     0.1000000000E+03
         0.2470000000E+08     0.1000000000E+03
         0.2480000000E+08     0.1000000000E+03
         0.2490000000E+08     0.1000000000E+03
         0.2500000000E+08     0.1000000000E+03
         0.2510000000E+08     0.1000000000E+03
         0.2510000000E+08     0.1000000000E+03
         0.2520000000E+08     0.1000000000E+03
         0.2530000000E+08     0.1000000000E+03
         0.2540000000E+08     0.1000000000E+03
         0.2550000000E+08     0.1000000000E+03
         0.2560000000E+08     0.1000000000E+03
         0.2570000000E+08     0.1000000000E+03
         0.2570000000E+08     0.1000000000E+03
         0.2580000000E+08     0.1000000000E+03
         0.2590000000E+08     0.1000000000E+03
         0.2600000000E+08     0.1000000000E+03
         0.2610000000E+08     0.1000000000E+03
         0.2620000000E+08     0.1000000000E+03
         0.2630000000E+08     0.1000000000E+03
         0.2640000000E+08     0.1000000000E+03
         0.2640000000E+08     0.1000000000E+03
         0.2650000000E+08     0.1000000000E+03
         0.2660000000E+08     0.1000000000E+03
         0.2670000000E+08     0.1000000000E+03
         0.2680000000E+08     0.1000000000E+03
         0.2690000000E+08     0.1000000000E+03
         0.2700000000E+08     0.1000000000E+03
         0.2700000000E+08     0.1000000000E+03
         0.2710000000E+08     0.1000000000E+03
         0.2720000000E+08     0.1000000000E+03
         0.2730000000E+08     0.1000000000E+03
         0.2740000000E+08     0.1000000000E+03
         0.2750000000E+08     0.1000000000E+03
         0.2760000000E+08     0.1000000000E+03
         0.2760000000E+08     0.1000000000E+03
         0.2770000000E+08     0.1000000000E+03
         0.2780000000E+08     0.1000000000E+03
         0.2790000000E+08     0.1000000000E+03
         0.2800000000E+08     0.1000000000E+03
         0.2810000000E+08     0.1000000000E+03
         0.2820000000E+08     0.1000000000E+03
         0.2830000000E+08     0.1000000000E+03
         0.2830000000E+08     0.1000000000E+03
         0.2840000000E+08     0.1000000000E+03
         0.2850000000E+08     0.1000000000E+03
         0.2860000000E+08     0.1000000000E+03
         0.2870000000E+08     0.1000000000E+03
         0.2880000000E+08     0.1000000000E+03
         0.2890000000E+08     0.1000000000E+03
         0.2890000000E+08     0.1000000000E+03
         0.2900000000E+08     0.1000000000E+03
         0.2910000000E+08     0.1000000000E+03
         0.2920000000E+08     0.1000000000E+03
         0.2930000000E+08     0.1000000000E+03
         0.2940000000E+08     0.1000000000E+03
         0.2950000000E+08     0.1000000000E+03
         0.2950000000E+08     0.1000000000E+03
         0.2960000000E+08     0.1000000000E+03
         0.2970000000E+08     0.1000000000E+03
         0.2980000000E+08     0.1000000000E+03
         0.2990000000E+08     0.1000000000E+03
         0.3000000000E+08     0.1000000000E+03
         0.3010000000E+08     0.1000000000E+03
         0.3020000000E+08     0.1000000000E+03
         0.3020000000E+08     0.1000000000E+03
         0.3030000000E+08     0.1000000000E+03
         0.3040000000E+08     0.1000000000E+03
         0.3050000000E+08     0.1000000000E+03
         0.3060000000E+08     0.1000000000E+03
         0.3070000000E+08     0.1000000000E+03
         0.3080000000E+08     0.1000000000E+03
         0.3080000000E+08     0.1000000000E+03
         0.3090000000E+08     0.1000000000E+03
         0.3100000000E+08     0.1000000000E+03
         0.3110000000E+08     0.1000000000E+03
         0.3120000000E+08     0.1000000000E+03
         0.3130000000E+08     0.1000000000E+03
         0.3140000000E+08     0.1000000000E+03
         0.3150000000E+08     0.1000000000E+03
         0.3150000000E+08     0.1000000000E+03
         0.3160000000E+08     0.1000000000E+03
         0.3170000000E+08     0.1000000000E+03
         0.3180000000E+08     0.1000000000E+03
         0.3190000000E+08     0.1000000000E+03
         0.3200000000E+08     0.1000000000E+03
         0.3210000000E+08     0.1000000000E+03
         0.3210000000E+08     0.1000000000E+03
         0.3220000000E+08     0.1000000000E+03
         0.3230000000E+08     0.1000000000E+03
         0.3240000000E+08     0.1000000000E+03
         0.3250000000E+08     0.1000000000E+03
         0.3260000000E+08     0.1000000000E+03
         0.3270000000E+08     0.1000000000E+03
         0.3270000000E+08     0.1000000000E+03
         0.3280000000E+08     0.1000000000E+03
         0.3290000000E+08     0.1000000000E+03
         0.3300000000E+08     0.1000000000E+03
         0.3310000000E+08     0.1000000000E+03
         0.3320000000E+08     0.1000000000E+03
         0.3330000000E+08     0.1000000000E+03
         0.3340000000E+08     0.1000000000E+03
         0.3340000000E+08     0.1000000000E+03
         0.3350000000E+08     0.1000000000E+03
         0.3360000000E+08     0.1000000000E+03
         0.3370000000E+08     0.1000000000E+03
         0.3380000000E+08     0.1000000000E+03
         0.3390000000E+08     0.1000000000E+03
         0.3400000000E+08     0.1000000000E+03
         0.3400000000E+08     0.1000000000E+03
         0.3410000000E+08     0.1000000000E+03
         0.3420000000E+08     0.1000000000E+03
         0.3430000000E+08     0.1000000000E+03
         0.3440000000E+08     0.1000000000E+03
         0.3450000000E+08     0.1000000000E+03
         0.3460000000E+08     0.1000000000E+03
         0.3460000000E+08     0.1000000000E+03
         0.3470000000E+08     0.1000000000E+03
         0.3480000000E+08     0.1000000000E+03
         0.3490000000E+08     0.1000000000E+03
         0.3500000000E+08     0.1000000000E+03
         0.3510000000E+08     0.1000000000E+03
         0.3520000000E+08     0.1000000000E+03
         0.3530000000E+08     0.1000000000E+03
         0.3530000000E+08     0.1000000000E+03
         0.3540000000E+08     0.1000000000E+03
         0.3550000000E+08     0.1000000000E+03
         0.3560000000E+08     0.1000000000E+03
         0.3570000000E+08     0.1000000000E+03
         0.3580000000E+08     0.1000000000E+03
         0.3590000000E+08     0.1000000000E+03
         0.3590000000E+08     0.1000000000E+03
         0.3600000000E+08     0.1000000000E+03
         0.3610000000E+08     0.1000000000E+03
         0.3620000000E+08     0.1000000000E+03
         0.3630000000E+08     0.1000000000E+03
         0.3640000000E+08     0.1000000000E+03
         0.3650000000E+08     0.1000000000E+03
         0.3650000000E+08     0.1000000000E+03
         0.3660000000E+08     0.1000000000E+03
         0.3670000000E+08     0.1000000000E+03
         0.3680000000E+08     0.1000000000E+03
         0.3690000000E+08     0.1000000000E+03
         0.3700000000E+08     0.1000000000E+03
         0.3710000000E+08     0.1000000000E+03
         0.3720000000E+08     0.1000000000E+03
         0.3720000000E+08     0.1000000000E+03
         0.3730000000E+08     0.1000000000E+03
         0.3740000000E+08     0.1000000000E+03
         0.3750000000E+08     0.1000000000E+03
         0.3760000000E+08     0.1000000000E+03
         0.3770000000E+08     0.1000000000E+03
         0.3780000000E+08     0.1000000000E+03
         0.3780000000E+08     0.1000000000E+03
         0.3790000000E+08     0.1000000000E+03
         0.3800000000E+08     0.1000000000E+03
         0.3810000000E+08     0.1000000000E+03
         0.3820000000E+08     0.1000000000E+03
         0.3830000000E+08     0.1000000000E+03
         0.3840000000E+08     0.1000000000E+03
         0.3840000000E+08     0.1000000000E+03
         0.3850000000E+08     0.1000000000E+03
         0.3860000000E+08     0.1000000000E+03
         0.3870000000E+08     0.1000000000E+03
         0.3880000000E+08     0.1000000000E+03
         0.3890000000E+08     0.1000000000E+03
         0.3900000000E+08     0.1000000000E+03
         0.3910000000E+08     0.1000000000E+03
         0.3910000000E+08     0.1000000000E+03
         0.3920000000E+08     0.1000000000E+03
         0.3930000000E+08     0.1000000000E+03
         0.3940000000E+08     0.1000000000E+03
         0.3950000000E+08     0.1000000000E+03
         0.3960000000E+08     0.1000000000E+03
         0.3970000000E+08     0.1000000000E+03
         0.3970000000E+08     0.1000000000E+03
         0.3980000000E+08     0.1000000000E+03
         0.3990000000E+08     0.1000000000E+03
         0.4000000000E+08     0.1000000000E+03
         0.4010000000E+08     0.1000000000E+03
         0.4020000000E+08     0.1000000000E+03
         0.4030000000E+08     0.1000000000E+03
         0.4030000000E+08     0.1000000000E+03
         0.4040000000E+08     0.1000000000E+03
         0.4050000000E+08     0.1000000000E+03
         0.4060000000E+08     0.1000000000E+03
         0.4070000000E+08     0.1000000000E+03
         0.4080000000E+08     0.1000000000E+03
         0.4090000000E+08     0.1000000000E+03
         0.4100000000E+08     0.1000000000E+03
         0.4100000000E+08     0.1000000000E+03
         0.4110000000E+08     0.1000000000E+03
         0.4120000000E+08     0.1000000000E+03
         0.4130000000E+08     0.1000000000E+03
         0.4140000000E+08     0.1000000000E+03
         0.4150000000E+08     0.1000000000E+03
         0.4160000000E+08     0.1000000000E+03
         0.4160000000E+08     0.1000000000E+03
         0.4170000000E+08     0.1000000000E+03
         0.4180000000E+08     0.1000000000E+03
         0.4190000000E+08     0.1000000000E+03
         0.4200000000E+08     0.1000000000E+03
         0.4210000000E+08     0.1000000000E+03
         0.4220000000E+08     0.1000000000E+03
         0.4230000000E+08     0.1000000000E+03
         0.4230000000E+08     0.1000000000E+03
         0.4240000000E+08     0.1000000000E+03
         0.4250000000E+08     0.1000000000E+03
         0.4260000000E+08     0.1000000000E+03
         0.4270000000E+08     0.1000000000E+03
         0.4280000000E+08     0.1000000000E+03
         0.4290000000E+08     0.1000000000E+03
         0.4290000000E+08     0.1000000000E+03
         0.4300000000E+08     0.1000000000E+03
         0.4310000000E+08     0.1000000000E+03
         0.4320000000E+08     0.1000000000E+03
         0.4330000000E+08     0.1000000000E+03
         0.4340000000E+08     0.1000000000E+03
         0.4350000000E+08     0.1000000000E+03
         0.4350000000E+08     0.1000000000E+03
         0.4360000000E+08     0.1000000000E+03
         0.4370000000E+08     0.1000000000E+03
         0.4380000000E+08     0.1000000000E+03
         0.4390000000E+08     0.1000000000E+03
         0.4400000000E+08     0.1000000000E+03
         0.4410000000E+08     0.1000000000E+03
         0.4420000000E+08     0.1000000000E+03
         0.4420000000E+08     0.1000000000E+03
         0.4430000000E+08     0.1000000000E+03
         0.4440000000E+08     0.1000000000E+03
         0.4450000000E+08     0.1000000000E+03
         0.4460000000E+08     0.1000000000E+03
         0.4470000000E+08     0.1000000000E+03
         0.4480000000E+08     0.1000000000E+03
         0.4480000000E+08     0.1000000000E+03
         0.4490000000E+08     0.1000000000E+03
         0.4500000000E+08     0.1000000000E+03
         0.4510000000E+08     0.1000000000E+03
         0.4520000000E+08     0.1000000000E+03
         0.4530000000E+08     0.1000000000E+03
         0.4540000000E+08     0.1000000000E+03
         0.4540000000E+08     0.1000000000E+03
         0.4550000000E+08     0.1000000000E+03
         0.4560000000E+08     0.1000000000E+03
         0.4570000000E+08     0.1000000000E+03
         0.4580000000E+08     0.1000000000E+03
         0.4590000000E+08     0.1000000000E+03
         0.4600000000E+08     0.1000000000E+03
         0.4610000000E+08     0.1000000000E+03
         0.4610000000E+08     0.1000000000E+03
         0.4620000000E+08     0.1000000000E+03
         0.4630000000E+08     0.1000000000E+03
         0.4640000000E+08     0.1000000000E+03
         0.4650000000E+08     0.1000000000E+03
         0.4660000000E+08     0.1000000000E+03
         0.4670000000E+08     0.1000000000E+03
         0.4670000000E+08     0.1000000000E+03
         0.4680000000E+08     0.1000000000E+03
         0.4690000000E+08     0.1000000000E+03
         0.4700000000E+08     0.1000000000E+03
         0.4710000000E+08     0.1000000000E+03
         0.4720000000E+08     0.1000000000E+03
         0.4730000000E+08     0.1000000000E+03
         0.4730000000E+08     0.1000000000E+03
         0.4740000000E+08     0.1000000000E+03
         0.4750000000E+08     0.1000000000E+03
         0.4760000000E+08     0.1000000000E+03
         0.4770000000E+08     0.1000000000E+03
         0.4780000000E+08     0.1000000000E+03
         0.4790000000E+08     0.1000000000E+03
         0.4800000000E+08     0.1000000000E+03
         0.4800000000E+08     0.1000000000E+03
         0.4810000000E+08     0.1000000000E+03
         0.4820000000E+08     0.1000000000E+03
         0.4830000000E+08     0.1000000000E+03
         0.4840000000E+08     0.1000000000E+03
         0.4850000000E+08     0.1000000000E+03
         0.4860000000E+08     0.1000000000E+03
         0.4860000000E+08     0.1000000000E+03
         0.4870000000E+08     0.1000000000E+03
         0.4880000000E+08     0.1000000000E+03
         0.4890000000E+08     0.1000000000E+03
         0.4900000000E+08     0.1000000000E+03
         0.4910000000E+08     0.1000000000E+03
         0.4920000000E+08     0.1000000000E+03
         0.4920000000E+08     0.1000000000E+03
         0.4930000000E+08     0.1000000000E+03
         0.4940000000E+08     0.1000000000E+03
         0.4950000000E+08     0.1000000000E+03
         0.4960000000E+08     0.1000000000E+03
         0.4970000000E+08     0.1000000000E+03
         0.4980000000E+08     0.1000000000E+03
         0.4990000000E+08     0.1000000000E+03
         0.4990000000E+08     0.1000000000E+03
         0.5000000000E+08     0.1000000000E+03
         0.5010000000E+08     0.1000000000E+03
         0.5020000000E+08     0.1000000000E+03
         0.5030000000E+08     0.1000000000E+03
         0.5040000000E+08     0.1000000000E+03
         0.5050000000E+08     0.1000000000E+03
         0.5050000000E+08     0.1000000000E+03
         0.5060000000E+08     0.1000000000E+03
         0.5070000000E+08     0.1000000000E+03
         0.5080000000E+08     0.1000000000E+03
         0.5090000000E+08     0.1000000000E+03
         0.5100000000E+08     0.1000000000E+03
         0.5110000000E+08     0.1000000000E+03
         0.5110000000E+08     0.1000000000E+03
         0.5120000000E+08     0.1000000000E+03
         0.5130000000E+08     0.1000000000E+03
         0.5140000000E+08     0.1000000000E+03
         0.5150000000E+08     0.1000000000E+03
         0.5160000000E+08     0.1000000000E+03
         0.5170000000E+08     0.1000000000E+03
         0.5180000000E+08     0.1000000000E+03
         0.5180000000E+08     0.1000000000E+03
         0.5190000000E+08     0.1000000000E+03
         0.5200000000E+08     0.1000000000E+03
         0.5210000000E+08     0.1000000000E+03
         0.5220000000E+08     0.1000000000E+03
         0.5230000000E+08     0.1000000000E+03
         0.5240000000E+08     0.1000000000E+03
         0.5240000000E+08     0.1000000000E+03
         0.5250000000E+08     0.1000000000E+03
         0.5260000000E+08     0.1000000000E+03
         0.5270000000E+08     0.1000000000E+03
         0.5280000000E+08     0.1000000000E+03
         0.5290000000E+08     0.1000000000E+03
         0.5300000000E+08     0.1000000000E+03
         0.5310000000E+08     0.1000000000E+03
         0.5310000000E+08     0.1000000000E+03
         0.5320000000E+08     0.1000000000E+03
         0.5330000000E+08     0.1000000000E+03
         0.5340000000E+08     0.1000000000E+03
         0.5350000000E+08     0.1000000000E+03
         0.5360000000E+08     0.1000000000E+03
         0.5370000000E+08     0.1000000000E+03
         0.5370000000E+08     0.1000000000E+03
         0.5380000000E+08     0.1000000000E+03
         0.5390000000E+08     0.1000000000E+03
         0.5400000000E+08     0.1000000000E+03
         0.5410000000E+08     0.1000000000E+03
         0.5420000000E+08     0.1000000000E+03
         0.5430000000E+08     0.1000000000E+03
         0.5430000000E+08     0.1000000000E+03
         0.5440000000E+08     0.1000000000E+03
         0.5450000000E+08     0.1000000000E+03
         0.5460000000E+08     0.1000000000E+03
         0.5470000000E+08     0.1000000000E+03
         0.5480000000E+08     0.1000000000E+03
         0.5490000000E+08     0.1000000000E+03
         0.5500000000E+08     0.1000000000E+03
         0.5500000000E+08     0.1000000000E+03
         0.5510000000E+08     0.1000000000E+03
         0.5520000000E+08     0.1000000000E+03
         0.5530000000E+08     0.1000000000E+03
         0.5540000000E+08     0.1000000000E+03
         0.5550000000E+08     0.1000000000E+03
         0.5560000000E+08     0.1000000000E+03
         0.5560000000E+08     0.1000000000E+03
         0.5570000000E+08     0.1000000000E+03
         0.5580000000E+08     0.1000000000E+03
         0.5590000000E+08     0.1000000000E+03
         0.5600000000E+08     0.1000000000E+03
         0.5610000000E+08     0.1000000000E+03
         0.5620000000E+08     0.1000000000E+03
         0.5620000000E+08     0.1000000000E+03
         0.5630000000E+08     0.1000000000E+03
         0.5640000000E+08     0.1000000000E+03
         0.5650000000E+08     0.1000000000E+03
         0.5660000000E+08     0.1000000000E+03
         0.5670000000E+08     0.1000000000E+03
         0.5680000000E+08     0.1000000000E+03
         0.5690000000E+08     0.1000000000E+03
         0.5690000000E+08     0.1000000000E+03
         0.5700000000E+08     0.1000000000E+03
         0.5710000000E+08     0.1000000000E+03
         0.5720000000E+08     0.1000000000E+03
         0.5730000000E+08     0.1000000000E+03
         0.5740000000E+08     0.1000000000E+03
         0.5750000000E+08     0.1000000000E+03
         0.5750000000E+08     0.1000000000E+03
         0.5760000000E+08     0.1000000000E+03
         0.5770000000E+08     0.1000000000E+03
         0.5780000000E+08     0.1000000000E+03
         0.5790000000E+08     0.1000000000E+03
         0.5800000000E+08     0.1000000000E+03
         0.5810000000E+08     0.1000000000E+03
         0.5810000000E+08     0.1000000000E+03
         0.5820000000E+08     0.1000000000E+03
         0.5830000000E+08     0.1000000000E+03
         0.5840000000E+08     0.1000000000E+03
         0.5850000000E+08     0.1000000000E+03
         0.5860000000E+08     0.1000000000E+03
         0.5870000000E+08     0.1000000000E+03
         0.5880000000E+08     0.1000000000E+03
         0.5880000000E+08     0.1000000000E+03
         0.5890000000E+08     0.1000000000E+03
         0.5900000000E+08     0.1000000000E+03
         0.5910000000E+08     0.1000000000E+03
         0.5920000000E+08     0.1000000000E+03
         0.5930000000E+08     0.1000000000E+03
         0.5940000000E+08     0.1000000000E+03
         0.5940000000E+08     0.1000000000E+03
         0.5950000000E+08     0.1000000000E+03
         0.5960000000E+08     0.1000000000E+03
         0.5970000000E+08     0.1000000000E+03
         0.5980000000E+08     0.1000000000E+03
         0.5990000000E+08     0.1000000000E+03
         0.6000000000E+08     0.1000000000E+03
         0.6000000000E+08     0.1000000000E+03
         0.6010000000E+08     0.1000000000E+03
         0.6020000000E+08     0.1000000000E+03
         0.6030000000E+08     0.1000000000E+03
         0.6040000000E+08     0.1000000000E+03
         0.6050000000E+08     0.1000000000E+03
         0.6060000000E+08     0.1000000000E+03
         0.6070000000E+08     0.1000000000E+03
         0.6070000000E+08     0.1000000000E+03
         0.6080000000E+08     0.1000000000E+03
         0.6090000000E+08     0.1000000000E+03
         0.6100000000E+08     0.1000000000E+03
         0.6110000000E+08     0.1000000000E+03
         0.6120000000E+08     0.1000000000E+03
         0.6130000000E+08     0.1000000000E+03
         0.6130000000E+08     0.1000000000E+03
         0.6140000000E+08     0.1000000000E+03
         0.6150000000E+08     0.1000000000E+03
         0.6160000000E+08     0.1000000000E+03
         0.6170000000E+08     0.1000000000E+03
         0.6180000000E+08     0.1000000000E+03
         0.6190000000E+08     0.1000000000E+03
         0.6190000000E+08     0.1000000000E+03
         0.6200000000E+08     0.1000000000E+03
         0.6210000000E+08     0.1000000000E+03
         0.6220000000E+08     0.1000000000E+03
         0.6230000000E+08     0.1000000000E+03
         0.6240000000E+08     0.1000000000E+03
         0.6250000000E+08     0.1000000000E+03
         0.6260000000E+08     0.1000000000E+03
         0.6260000000E+08     0.1000000000E+03
         0.6270000000E+08     0.1000000000E+03
         0.6280000000E+08     0.1000000000E+03
         0.6290000000E+08     0.1000000000E+03
         0.6300000000E+08     0.1000000000E+03
         0.6310000000E+08     0.1000000000E+03
         0.6320000000E+08     0.1000000000E+03
         0.6320000000E+08     0.1000000000E+03
         0.6330000000E+08     0.1000000000E+03
         0.6340000000E+08     0.1000000000E+03
         0.6350000000E+08     0.1000000000E+03
         0.6360000000E+08     0.1000000000E+03
         0.6370000000E+08     0.1000000000E+03
         0.6380000000E+08     0.1000000000E+03
         0.6390000000E+08     0.1000000000E+03
         0.6390000000E+08     0.1000000000E+03
         0.6400000000E+08     0.1000000000E+03
         0.6410000000E+08     0.1000000000E+03
         0.6420000000E+08     0.1000000000E+03
         0.6430000000E+08     0.1000000000E+03
         0.6440000000E+08     0.1000000000E+03
         0.6450000000E+08     0.1000000000E+03
         0.6450000000E+08     0.1000000000E+03
         0.6460000000E+08     0.1000000000E+03
         0.6470000000E+08     0.1000000000E+03
         0.6480000000E+08     0.1000000000E+03
         0.6490000000E+08     0.1000000000E+03
         0.6500000000E+08     0.1000000000E+03
         0.6510000000E+08     0.1000000000E+03
         0.6510000000E+08     0.1000000000E+03
         0.6520000000E+08     0.1000000000E+03
         0.6530000000E+08     0.1000000000E+03
         0.6540000000E+08     0.1000000000E+03
         0.6550000000E+08     0.1000000000E+03
         0.6560000000E+08     0.1000000000E+03
         0.6570000000E+08     0.1000000000E+03
         0.6580000000E+08     0.1000000000E+03
         0.6590000000E+08     0.1000000000E+03
         0.6600000000E+08     0.1000000000E+03
         0.6610000000E+08     0.1000000000E+03
         0.6610000000E+08     0.1000000000E+03
         0.6620000000E+08     0.1000000000E+03
         0.6630000000E+08     0.1000000000E+03
         0.6640000000E+08     0.1000000000E+03
         0.6650000000E+08     0.1000000000E+03
         0.6660000000E+08     0.1000000000E+03
         0.6670000000E+08     0.1000000000E+03
         0.6670000000E+08     0.1000000000E+03
         0.6680000000E+08     0.1000000000E+03
         0.6690000000E+08     0.1000000000E+03
         0.6700000000E+08     0.1000000000E+03
         0.6710000000E+08     0.1000000000E+03
         0.6720000000E+08     0.1000000000E+03
         0.6730000000E+08     0.1000000000E+03
         0.6730000000E+08     0.1000000000E+03
         0.6740000000E+08     0.1000000000E+03
         0.6750000000E+08     0.1000000000E+03
         0.6760000000E+08     0.1000000000E+03
         0.6770000000E+08     0.1000000000E+03
         0.6780000000E+08     0.1000000000E+03
         0.6790000000E+08     0.1000000000E+03
         0.6800000000E+08     0.1000000000E+03
         0.6810000000E+08     0.1000000000E+03
         0.6820000000E+08     0.1000000000E+03
         0.6830000000E+08     0.1000000000E+03
         0.6830000000E+08     0.1000000000E+03
         0.6840000000E+08     0.1000000000E+03
         0.6850000000E+08     0.1000000000E+03
         0.6860000000E+08     0.1000000000E+03
         0.6870000000E+08     0.1000000000E+03
         0.6880000000E+08     0.1000000000E+03
         0.6890000000E+08     0.1000000000E+03
         0.6890000000E+08     0.1000000000E+03
         0.6900000000E+08     0.1000000000E+03
         0.6910000000E+08     0.1000000000E+03
         0.6920000000E+08     0.1000000000E+03
         0.6930000000E+08     0.1000000000E+03
         0.6940000000E+08     0.1000000000E+03
         0.6950000000E+08     0.1000000000E+03
         0.6950000000E+08     0.1000000000E+03
         0.6960000000E+08     0.1000000000E+03
         0.6970000000E+08     0.1000000000E+03
         0.6980000000E+08     0.1000000000E+03
         0.6990000000E+08     0.1000000000E+03
         0.7000000000E+08     0.1000000000E+03
         0.7010000000E+08     0.1000000000E+03
         0.7020000000E+08     0.1000000000E+03
         0.7030000000E+08     0.1000000000E+03
         0.7040000000E+08     0.1000000000E+03
         0.7050000000E+08     0.1000000000E+03
         0.7050000000E+08     0.1000000000E+03
         0.7060000000E+08     0.1000000000E+03
         0.7070000000E+08     0.1000000000E+03
         0.7080000000E+08     0.1000000000E+03
         0.7090000000E+08     0.1000000000E+03
         0.7100000000E+08     0.1000000000E+03
         0.7110000000E+08     0.1000000000E+03
         0.7110000000E+08     0.1000000000E+03
         0.7120000000E+08     0.1000000000E+03
         0.7130000000E+08     0.1000000000E+03
         0.7140000000E+08     0.1000000000E+03
         0.7150000000E+08     0.1000000000E+03
         0.7160000000E+08     0.1000000000E+03
         0.7170000000E+08     0.1000000000E+03
         0.7170000000E+08     0.1000000000E+03
         0.7180000000E+08     0.1000000000E+03
         0.7190000000E+08     0.1000000000E+03
         0.7200000000E+08     0.1000000000E+03
         0.7210000000E+08     0.1000000000E+03
         0.7220000000E+08     0.1000000000E+03
         0.7230000000E+08     0.1000000000E+03
         0.7240000000E+08     0.1000000000E+03
         0.7250000000E+08     0.1000000000E+03
         0.7260000000E+08     0.1000000000E+03
         0.7270000000E+08     0.1000000000E+03
         0.7270000000E+08     0.1000000000E+03
         0.7280000000E+08     0.1000000000E+03
         0.7290000000E+08     0.1000000000E+03
         0.7300000000E+08     0.1000000000E+03
         0.7310000000E+08     0.1000000000E+03
         0.7320000000E+08     0.1000000000E+03
         0.7330000000E+08     0.1000000000E+03
         0.7330000000E+08     0.1000000000E+03
         0.7340000000E+08     0.1000000000E+03
         0.7350000000E+08     0.1000000000E+03
         0.7360000000E+08     0.1000000000E+03
         0.7370000000E+08     0.1000000000E+03
         0.7380000000E+08     0.1000000000E+03
         0.7390000000E+08     0.1000000000E+03
         0.7390000000E+08     0.1000000000E+03
         0.7400000000E+08     0.1000000000E+03
         0.7410000000E+08     0.1000000000E+03
         0.7420000000E+08     0.1000000000E+03
         0.7430000000E+08     0.1000000000E+03
         0.7440000000E+08     0.1000000000E+03
         0.7450000000E+08     0.1000000000E+03
         0.7460000000E+08     0.1000000000E+03
         0.7470000000E+08     0.1000000000E+03
         0.7480000000E+08     0.1000000000E+03
         0.7490000000E+08     0.1000000000E+03
         0.7490000000E+08     0.1000000000E+03
         0.7500000000E+08     0.1000000000E+03
         0.7510000000E+08     0.1000000000E+03
         0.7520000000E+08     0.1000000000E+03
         0.7530000000E+08     0.1000000000E+03
         0.7540000000E+08     0.1000000000E+03
         0.7550000000E+08     0.1000000000E+03
         0.7550000000E+08     0.1000000000E+03
         0.7560000000E+08     0.1000000000E+03
         0.7570000000E+08     0.1000000000E+03
         0.7580000000E+08     0.1000000000E+03
         0.7590000000E+08     0.1000000000E+03
         0.7600000000E+08     0.1000000000E+03
         0.7610000000E+08     0.1000000000E+03
         0.7610000000E+08     0.1000000000E+03
         0.7620000000E+08     0.1000000000E+03
         0.7630000000E+08     0.1000000000E+03
         0.7640000000E+08     0.1000000000E+03
         0.7650000000E+08     0.1000000000E+03
         0.7660000000E+08     0.1000000000E+03
         0.7670000000E+08     0.1000000000E+03
         0.7680000000E+08     0.1000000000E+03
         0.7690000000E+08     0.1000000000E+03
         0.7700000000E+08     0.1000000000E+03
         0.7710000000E+08     0.1000000000E+03
         0.7710000000E+08     0.1000000000E+03
         0.7720000000E+08     0.1000000000E+03
         0.7730000000E+08     0.1000000000E+03
         0.7740000000E+08     0.1000000000E+03
         0.7750000000E+08     0.1000000000E+03
         0.7760000000E+08     0.1000000000E+03
         0.7770000000E+08     0.1000000000E+03
         0.7770000000E+08     0.1000000000E+03
         0.7780000000E+08     0.1000000000E+03
         0.7790000000E+08     0.1000000000E+03
         0.7800000000E+08     0.1000000000E+03
         0.7810000000E+08     0.1000000000E+03
         0.7820000000E+08     0.1000000000E+03
         0.7830000000E+08     0.1000000000E+03
         0.7830000000E+08     0.1000000000E+03
         0.7840000000E+08     0.1000000000E+03
         0.7850000000E+08     0.1000000000E+03
         0.7860000000E+08     0.1000000000E+03
         0.7870000000E+08     0.1000000000E+03
         0.7880000000E+08     0.1000000000E+03
         0.7890000000E+08     0.1000000000E+03
         0.7900000000E+08     0.1000000000E+03
         0.7910000000E+08     0.1000000000E+03
         0.7920000000E+08     0.1000000000E+03
         0.7930000000E+08     0.1000000000E+03
         0.7930000000E+08     0.1000000000E+03
         0.7940000000E+08     0.1000000000E+03
         0.7950000000E+08     0.1000000000E+03
         0.7960000000E+08     0.1000000000E+03
         0.7970000000E+08     0.1000000000E+03
         0.7980000000E+08     0.1000000000E+03
         0.7990000000E+08     0.1000000000E+03
         0.7990000000E+08     0.1000000000E+03
         0.8000000000E+08     0.1000000000E+03
         0.8010000000E+08     0.1000000000E+03
         0.8020000000E+08     0.1000000000E+03
         0.8030000000E+08     0.1000000000E+03
         0.8040000000E+08     0.1000000000E+03
         0.8050000000E+08     0.1000000000E+03
         0.8050000000E+08     0.1000000000E+03
         0.8060000000E+08     0.1000000000E+03
         0.8070000000E+08     0.1000000000E+03
         0.8080000000E+08     0.1000000000E+03
         0.8090000000E+08     0.1000000000E+03
         0.8100000000E+08     0.1000000000E+03
         0.8110000000E+08     0.1000000000E+03
         0.8120000000E+08     0.1000000000E+03
         0.8130000000E+08     0.1000000000E+03
         0.8140000000E+08     0.1000000000E+03
         0.8150000000E+08     0.1000000000E+03
         0.8150000000E+08     0.1000000000E+03
         0.8160000000E+08     0.1000000000E+03
         0.8170000000E+08     0.1000000000E+03
         0.8180000000E+08     0.1000000000E+03
         0.8190000000E+08     0.1000000000E+03
         0.8200000000E+08     0.1000000000E+03
         0.8210000000E+08     0.1000000000E+03
         0.8210000000E+08     0.1000000000E+03
         0.8220000000E+08     0.1000000000E+03
         0.8230000000E+08     0.1000000000E+03
         0.8240000000E+08     0.1000000000E+03
         0.8250000000E+08     0.1000000000E+03
         0.8260000000E+08     0.1000000000E+03
         0.8270000000E+08     0.1000000000E+03
         0.8270000000E+08     0.1000000000E+03
         0.8280000000E+08     0.1000000000E+03
         0.8290000000E+08     0.1000000000E+03
         0.8300000000E+08     0.1000000000E+03
         0.8310000000E+08     0.1000000000E+03
         0.8320000000E+08     0.1000000000E+03
         0.8330000000E+08     0.1000000000E+03
         0.8340000000E+08     0.1000000000E+03
         0.8350000000E+08     0.1000000000E+03
         0.8360000000E+08     0.1000000000E+03
         0.8370000000E+08     0.1000000000E+03
         0.8370000000E+08     0.1000000000E+03
         0.8380000000E+08     0.1000000000E+03
         0.8390000000E+08     0.1000000000E+03
         0.8400000000E+08     0.1000000000E+03
         0.8410000000E+08     0.1000000000E+03
         0.8420000000E+08     0.1000000000E+03
         0.8430000000E+08     0.1000000000E+03
         0.8430000000E+08     0.1000000000E+03
         0.8440000000E+08     0.1000000000E+03
         0.8450000000E+08     0.1000000000E+03
         0.8460000000E+08     0.1000000000E+03
         0.8470000000E+08     0.1000000000E+03
         0.8480000000E+08     0.1000000000E+03
         0.8490000000E+08     0.1000000000E+03
         0.8490000000E+08     0.1000000000E+03
         0.8500000000E+08     0.1000000000E+03
         0.8510000000E+08     0.1000000000E+03
         0.8520000000E+08     0.1000000000E+03
         0.8530000000E+08     0.1000000000E+03
         0.8540000000E+08     0.1000000000E+03
         0.8550000000E+08     0.1000000000E+03
         0.8560000000E+08     0.1000000000E+03
         0.8570000000E+08     0.1000000000E+03
         0.8580000000E+08     0.1000000000E+03
         0.8590000000E+08     0.1000000000E+03
         0.8590000000E+08     0.1000000000E+03
         0.8600000000E+08     0.1000000000E+03
         0.8610000000E+08     0.1000000000E+03
         0.8620000000E+08     0.1000000000E+03
         0.8630000000E+08     0.1000000000E+03
         0.8640000000E+08     0.1000000000E+03
         0.8650000000E+08     0.1000000000E+03
         0.8650000000E+08     0.1000000000E+03
         0.8660000000E+08     0.1000000000E+03
         0.8670000000E+08     0.1000000000E+03
         0.8680000000E+08     0.1000000000E+03
         0.8690000000E+08     0.1000000000E+03
         0.8700000000E+08     0.1000000000E+03
         0.8710000000E+08     0.1000000000E+03
         0.8710000000E+08     0.1000000000E+03
         0.8720000000E+08     0.1000000000E+03
         0.8730000000E+08     0.1000000000E+03
         0.8740000000E+08     0.1000000000E+03
         0.8750000000E+08     0.1000000000E+03
         0.8760000000E+08     0.1000000000E+03
         0.8770000000E+08     0.1000000000E+03
         0.8780000000E+08     0.1000000000E+03
         0.8790000000E+08     0.1000000000E+03
         0.8800000000E+08     0.1000000000E+03
         0.8810000000E+08     0.1000000000E+03
         0.8810000000E+08     0.1000000000E+03
         0.8820000000E+08     0.1000000000E+03
         0.8830000000E+08     0.1000000000E+03
         0.8840000000E+08     0.1000000000E+03
         0.8850000000E+08     0.1000000000E+03
         0.8860000000E+08     0.1000000000E+03
         0.8870000000E+08     0.1000000000E+03
         0.8870000000E+08     0.1000000000E+03
         0.8880000000E+08     0.1000000000E+03
         0.8890000000E+08     0.1000000000E+03
         0.8900000000E+08     0.1000000000E+03
         0.8910000000E+08     0.1000000000E+03
         0.8920000000E+08     0.1000000000E+03
         0.8930000000E+08     0.1000000000E+03
         0.8930000000E+08     0.1000000000E+03
         0.8940000000E+08     0.1000000000E+03
         0.8950000000E+08     0.1000000000E+03
         0.8960000000E+08     0.1000000000E+03
         0.8970000000E+08     0.1000000000E+03
         0.8980000000E+08     0.1000000000E+03
         0.8990000000E+08     0.1000000000E+03
         0.9000000000E+08     0.1000000000E+03
         0.9010000000E+08     0.1000000000E+03
         0.9020000000E+08     0.1000000000E+03
         0.9030000000E+08     0.1000000000E+03
         0.9030000000E+08     0.1000000000E+03
         0.9040000000E+08     0.1000000000E+03
         0.9050000000E+08     0.1000000000E+03
         0.9060000000E+08     0.1000000000E+03
         0.9070000000E+08     0.1000000000E+03
         0.9080000000E+08     0.1000000000E+03
         0.9090000000E+08     0.1000000000E+03
         0.9090000000E+08     0.1000000000E+03
         0.9100000000E+08     0.1000000000E+03
         0.9110000000E+08     0.1000000000E+03
         0.9120000000E+08     0.1000000000E+03
         0.9130000000E+08     0.1000000000E+03
         0.9140000000E+08     0.1000000000E+03
         0.9150000000E+08     0.1000000000E+03
         0.9150000000E+08     0.1000000000E+03
         0.9160000000E+08     0.1000000000E+03
         0.9170000000E+08     0.1000000000E+03
         0.9180000000E+08     0.1000000000E+03
         0.9190000000E+08     0.1000000000E+03
         0.9200000000E+08     0.1000000000E+03
         0.9210000000E+08     0.1000000000E+03
         0.9220000000E+08     0.1000000000E+03
         0.9230000000E+08     0.1000000000E+03
         0.9240000000E+08     0.1000000000E+03
         0.9250000000E+08     0.1000000000E+03
         0.9250000000E+08     0.1000000000E+03
         0.9260000000E+08     0.1000000000E+03
         0.9270000000E+08     0.1000000000E+03
         0.9280000000E+08     0.1000000000E+03
         0.9290000000E+08     0.1000000000E+03
         0.9300000000E+08     0.1000000000E+03
         0.9310000000E+08     0.1000000000E+03
         0.9310000000E+08     0.1000000000E+03
         0.9320000000E+08     0.1000000000E+03
         0.9330000000E+08     0.1000000000E+03
         0.9340000000E+08     0.1000000000E+03
         0.9350000000E+08     0.1000000000E+03
         0.9360000000E+08     0.1000000000E+03
         0.9370000000E+08     0.1000000000E+03
         0.9370000000E+08     0.1000000000E+03
         0.9380000000E+08     0.1000000000E+03
         0.9390000000E+08     0.1000000000E+03
         0.9400000000E+08     0.1000000000E+03
         0.9410000000E+08     0.1000000000E+03
         0.9420000000E+08     0.1000000000E+03
         0.9430000000E+08     0.1000000000E+03
         0.9440000000E+08     0.1000000000E+03
         0.9450000000E+08     0.1000000000E+03
         0.9460000000E+08     0.1000000000E+03
         0.9470000000E+08     0.1000000000E+03
         0.9470000000E+08     0.1000000000E+03
         0.9480000000E+08     0.1000000000E+03
         0.9490000000E+08     0.1000000000E+03
         0.9500000000E+08     0.1000000000E+03
         0.9510000000E+08     0.1000000000E+03
         0.9520000000E+08     0.1000000000E+03
         0.9530000000E+08     0.1000000000E+03
         0.9530000000E+08     0.1000000000E+03
         0.9540000000E+08     0.1000000000E+03
         0.9550000000E+08     0.1000000000E+03
         0.9560000000E+08     0.1000000000E+03
         0.9570000000E+08     0.1000000000E+03
         0.9580000000E+08     0.1000000000E+03
         0.9590000000E+08     0.1000000000E+03
         0.9590000000E+08     0.1000000000E+03
         0.9600000000E+08     0.1000000000E+03
         0.9610000000E+08     0.1000000000E+03
         0.9620000000E+08     0.1000000000E+03
         0.9630000000E+08     0.1000000000E+03
         0.9640000000E+08     0.1000000000E+03
         0.9650000000E+08     0.1000000000E+03
         0.9660000000E+08     0.1000000000E+03
         0.9670000000E+08     0.1000000000E+03
         0.9680000000E+08     0.1000000000E+03
         0.9690000000E+08     0.1000000000E+03
         0.9690000000E+08     0.1000000000E+03
         0.9700000000E+08     0.1000000000E+03
         0.9710000000E+08     0.1000000000E+03
         0.9720000000E+08     0.1000000000E+03
         0.9730000000E+08     0.1000000000E+03
         0.9740000000E+08     0.1000000000E+03
         0.9750000000E+08     0.1000000000E+03
         0.9750000000E+08     0.1000000000E+03
         0.9760000000E+08     0.1000000000E+03
         0.9770000000E+08     0.1000000000E+03
         0.9780000000E+08     0.1000000000E+03
         0.9790000000E+08     0.1000000000E+03
         0.9800000000E+08     0.1000000000E+03
         0.9810000000E+08     0.1000000000E+03
         0.9810000000E+08     0.1000000000E+03
         0.9820000000E+08     0.1000000000E+03
         0.9830000000E+08     0.1000000000E+03
         0.9840000000E+08     0.1000000000E+03
         0.9850000000E+08     0.1000000000E+03
         0.9860000000E+08     0.1000000000E+03
         0.9870000000E+08     0.1000000000E+03
         0.9880000000E+08     0.1000000000E+03
         0.9890000000E+08     0.1000000000E+03
         0.9900000000E+08     0.1000000000E+03
         0.9910000000E+08     0.1000000000E+03
         0.9910000000E+08     0.1000000000E+03
         0.9920000000E+08     0.1000000000E+03
         0.9930000000E+08     0.1000000000E+03
         0.9940000000E+08     0.1000000000E+03
         0.9950000000E+08     0.1000000000E+03
         0.9960000000E+08     0.1000000000E+03
         0.9970000000E+08     0.1000000000E+03
         0.9970000000E+08     0.1000000000E+03
         0.9980000000E+08     0.1000000000E+03
         0.9990000000E+08     0.1000000000E+03
         0.1000000000E+09     0.1000000000E+03
         0.1001000000E+09     0.1000000000E+03
         0.1002000000E+09     0.1000000000E+03
         0.1003000000E+09     0.1000000000E+03
         0.1003000000E+09     0.1000000000E+03
         0.1004000000E+09     0.1000000000E+03
         0.1005000000E+09     0.1000000000E+03
         0.1006000000E+09     0.1000000000E+03
         0.1007000000E+09     0.1000000000E+03
         0.1008000000E+09     0.1000000000E+03
         0.1009000000E+09     0.1000000000E+03
         0.1010000000E+09     0.1000000000E+03
         0.1011000000E+09     0.1000000000E+03
         0.1012000000E+09     0.1000000000E+03
         0.1013000000E+09     0.1000000000E+03
         0.1013000000E+09     0.1000000000E+03
         0.1014000000E+09     0.1000000000E+03
         0.1015000000E+09     0.1000000000E+03
         0.1016000000E+09     0.1000000000E+03
         0.1017000000E+09     0.1000000000E+03
         0.1018000000E+09     0.1000000000E+03
         0.1019000000E+09     0.1000000000E+03
         0.1019000000E+09     0.1000000000E+03
         0.1020000000E+09     0.1000000000E+03
         0.1021000000E+09     0.1000000000E+03
         0.1022000000E+09     0.1000000000E+03
         0.1023000000E+09     0.1000000000E+03
         0.1024000000E+09     0.1000000000E+03
         0.1025000000E+09     0.1000000000E+03
         0.1025000000E+09     0.1000000000E+03
         0.1026000000E+09     0.1000000000E+03
         0.1027000000E+09     0.1000000000E+03
         0.1028000000E+09     0.1000000000E+03
         0.1029000000E+09     0.1000000000E+03
         0.1030000000E+09     0.1000000000E+03
         0.1031000000E+09     0.1000000000E+03
         0.1032000000E+09     0.1000000000E+03
         0.1033000000E+09     0.1000000000E+03
         0.1034000000E+09     0.1000000000E+03
         0.1035000000E+09     0.1000000000E+03
         0.1035000000E+09     0.1000000000E+03
         0.1036000000E+09     0.1000000000E+03
         0.1037000000E+09     0.1000000000E+03
         0.1038000000E+09     0.1000000000E+03
         0.1039000000E+09     0.1000000000E+03
         0.1040000000E+09     0.1000000000E+03
         0.1041000000E+09     0.1000000000E+03
         0.1041000000E+09     0.1000000000E+03
         0.1042000000E+09     0.1000000000E+03
         0.1043000000E+09     0.1000000000E+03
         0.1044000000E+09     0.1000000000E+03
         0.1045000000E+09     0.1000000000E+03
         0.1046000000E+09     0.1000000000E+03
         0.1047000000E+09     0.1000000000E+03
         0.1047000000E+09     0.1000000000E+03
         0.1048000000E+09     0.1000000000E+03
         0.1049000000E+09     0.1000000000E+03
         0.1050000000E+09     0.1000000000E+03
         0.1051000000E+09     0.1000000000E+03
         0.1052000000E+09     0.1000000000E+03
         0.1053000000E+09     0.1000000000E+03
         0.1054000000E+09     0.1000000000E+03
         0.1055000000E+09     0.1000000000E+03
         0.1056000000E+09     0.1000000000E+03
         0.1057000000E+09     0.1000000000E+03
         0.1057000000E+09     0.1000000000E+03
         0.1058000000E+09     0.1000000000E+03
         0.1059000000E+09     0.1000000000E+03
         0.1060000000E+09     0.1000000000E+03
         0.1061000000E+09     0.1000000000E+03
         0.1062000000E+09     0.1000000000E+03
         0.1063000000E+09     0.1000000000E+03
         0.1063000000E+09     0.1000000000E+03
         0.1064000000E+09     0.1000000000E+03
         0.1065000000E+09     0.1000000000E+03
         0.1066000000E+09     0.1000000000E+03
         0.1067000000E+09     0.1000000000E+03
         0.1068000000E+09     0.1000000000E+03
         0.1069000000E+09     0.1000000000E+03
         0.1069000000E+09     0.1000000000E+03
         0.1070000000E+09     0.1000000000E+03
         0.1071000000E+09     0.1000000000E+03
         0.1072000000E+09     0.1000000000E+03
         0.1073000000E+09     0.1000000000E+03
         0.1074000000E+09     0.1000000000E+03
         0.1075000000E+09     0.1000000000E+03
         0.1076000000E+09     0.1000000000E+03
         0.1077000000E+09     0.1000000000E+03
         0.1078000000E+09     0.1000000000E+03
         0.1079000000E+09     0.1000000000E+03
         0.1079000000E+09     0.1000000000E+03
         0.1080000000E+09     0.1000000000E+03
         0.1081000000E+09     0.1000000000E+03
         0.1082000000E+09     0.1000000000E+03
         0.1083000000E+09     0.1000000000E+03
         0.1084000000E+09     0.1000000000E+03
         0.1085000000E+09     0.1000000000E+03
         0.1085000000E+09     0.1000000000E+03
         0.1086000000E+09     0.1000000000E+03
         0.1087000000E+09     0.1000000000E+03
         0.1088000000E+09     0.1000000000E+03
         0.1089000000E+09     0.1000000000E+03
         0.1090000000E+09     0.1000000000E+03
         0.1091000000E+09     0.1000000000E+03
         0.1091000000E+09     0.1000000000E+03
         0.1092000000E+09     0.1000000000E+03
         0.1093000000E+09     0.1000000000E+03
         0.1094000000E+09     0.1000000000E+03
         0.1095000000E+09     0.1000000000E+03
         0.1096000000E+09     0.1000000000E+03
         0.1097000000E+09     0.1000000000E+03
         0.1098000000E+09     0.1000000000E+03
         0.1099000000E+09     0.1000000000E+03
         0.1100000000E+09     0.1000000000E+03
         0.1101000000E+09     0.1000000000E+03
         0.1101000000E+09     0.1000000000E+03
         0.1102000000E+09     0.1000000000E+03
         0.1103000000E+09     0.1000000000E+03
         0.1104000000E+09     0.1000000000E+03
         0.1105000000E+09     0.1000000000E+03
         0.1106000000E+09     0.1000000000E+03
         0.1107000000E+09     0.1000000000E+03
         0.1107000000E+09     0.1000000000E+03
         0.1108000000E+09     0.1000000000E+03
         0.1109000000E+09     0.1000000000E+03
         0.1110000000E+09     0.1000000000E+03
         0.1111000000E+09     0.1000000000E+03
         0.1112000000E+09     0.1000000000E+03
         0.1113000000E+09     0.1000000000E+03
         0.1113000000E+09     0.1000000000E+03
         0.1114000000E+09     0.1000000000E+03
         0.1115000000E+09     0.1000000000E+03
         0.1116000000E+09     0.1000000000E+03
         0.1117000000E+09     0.1000000000E+03
         0.1118000000E+09     0.1000000000E+03
         0.1119000000E+09     0.1000000000E+03
         0.1120000000E+09     0.1000000000E+03
         0.1121000000E+09     0.1000000000E+03
         0.1122000000E+09     0.1000000000E+03
         0.1123000000E+09     0.1000000000E+03
         0.1123000000E+09     0.1000000000E+03
         0.1124000000E+09     0.1000000000E+03
         0.1125000000E+09     0.1000000000E+03
         0.1126000000E+09     0.1000000000E+03
         0.1127000000E+09     0.1000000000E+03
         0.1128000000E+09     0.1000000000E+03
         0.1129000000E+09     0.1000000000E+03
         0.1129000000E+09     0.1000000000E+03
         0.1130000000E+09     0.1000000000E+03
         0.1131000000E+09     0.1000000000E+03
         0.1132000000E+09     0.1000000000E+03
         0.1133000000E+09     0.1000000000E+03
         0.1134000000E+09     0.1000000000E+03
         0.1135000000E+09     0.1000000000E+03
         0.1135000000E+09     0.1000000000E+03
         0.1136000000E+09     0.1000000000E+03
         0.1137000000E+09     0.1000000000E+03
         0.1138000000E+09     0.1000000000E+03
         0.1139000000E+09     0.1000000000E+03
         0.1140000000E+09     0.1000000000E+03
         0.1141000000E+09     0.1000000000E+03
         0.1142000000E+09     0.1000000000E+03
         0.1143000000E+09     0.1000000000E+03
         0.1144000000E+09     0.1000000000E+03
         0.1145000000E+09     0.1000000000E+03
         0.1145000000E+09     0.1000000000E+03
         0.1146000000E+09     0.1000000000E+03
         0.1147000000E+09     0.1000000000E+03
         0.1148000000E+09     0.1000000000E+03
         0.1149000000E+09     0.1000000000E+03
         0.1150000000E+09     0.1000000000E+03
         0.1151000000E+09     0.1000000000E+03
         0.1151000000E+09     0.1000000000E+03
         0.1152000000E+09     0.1000000000E+03
         0.1153000000E+09     0.1000000000E+03
         0.1154000000E+09     0.1000000000E+03
         0.1155000000E+09     0.1000000000E+03
         0.1156000000E+09     0.1000000000E+03
         0.1157000000E+09     0.1000000000E+03
         0.1157000000E+09     0.1000000000E+03
         0.1158000000E+09     0.1000000000E+03
         0.1159000000E+09     0.1000000000E+03
         0.1160000000E+09     0.1000000000E+03
         0.1161000000E+09     0.1000000000E+03
         0.1162000000E+09     0.1000000000E+03
         0.1163000000E+09     0.1000000000E+03
         0.1164000000E+09     0.1000000000E+03
         0.1165000000E+09     0.1000000000E+03
         0.1166000000E+09     0.1000000000E+03
         0.1167000000E+09     0.1000000000E+03
         0.1167000000E+09     0.1000000000E+03
         0.1168000000E+09     0.1000000000E+03
         0.1169000000E+09     0.1000000000E+03
         0.1170000000E+09     0.1000000000E+03
         0.1171000000E+09     0.1000000000E+03
         0.1172000000E+09     0.1000000000E+03
         0.1173000000E+09     0.1000000000E+03
         0.1173000000E+09     0.1000000000E+03
         0.1174000000E+09     0.1000000000E+03
         0.1175000000E+09     0.1000000000E+03
         0.1176000000E+09     0.1000000000E+03
         0.1177000000E+09     0.1000000000E+03
         0.1178000000E+09     0.1000000000E+03
         0.1179000000E+09     0.1000000000E+03
         0.1179000000E+09     0.1000000000E+03
         0.1180000000E+09     0.1000000000E+03
         0.1181000000E+09     0.1000000000E+03
         0.1182000000E+09     0.1000000000E+03
         0.1183000000E+09     0.1000000000E+03
         0.1184000000E+09     0.1000000000E+03
         0.1185000000E+09     0.1000000000E+03
         0.1186000000E+09     0.1000000000E+03
         0.1187000000E+09     0.1000000000E+03
         0.1188000000E+09     0.1000000000E+03
         0.1189000000E+09     0.1000000000E+03
         0.1189000000E+09     0.1000000000E+03
         0.1190000000E+09     0.1000000000E+03
         0.1191000000E+09     0.1000000000E+03
         0.1192000000E+09     0.1000000000E+03
         0.1193000000E+09     0.1000000000E+03
         0.1194000000E+09     0.1000000000E+03
         0.1195000000E+09     0.1000000000E+03
         0.1195000000E+09     0.1000000000E+03
         0.1196000000E+09     0.1000000000E+03
         0.1197000000E+09     0.1000000000E+03
         0.1198000000E+09     0.1000000000E+03
         0.1199000000E+09     0.1000000000E+03
         0.1200000000E+09     0.1000000000E+03
         0.1201000000E+09     0.1000000000E+03
         0.1201000000E+09     0.1000000000E+03
         0.1202000000E+09     0.1000000000E+03
         0.1203000000E+09     0.1000000000E+03
         0.1204000000E+09     0.1000000000E+03
         0.1205000000E+09     0.1000000000E+03
         0.1206000000E+09     0.1000000000E+03
         0.1207000000E+09     0.1000000000E+03
         0.1208000000E+09     0.1000000000E+03
         0.1209000000E+09     0.1000000000E+03
         0.1210000000E+09     0.1000000000E+03
         0.1211000000E+09     0.1000000000E+03
         0.1211000000E+09     0.1000000000E+03
         0.1212000000E+09     0.1000000000E+03
         0.1213000000E+09     0.1000000000E+03
         0.1214000000E+09     0.1000000000E+03
         0.1215000000E+09     0.1000000000E+03
         0.1216000000E+09     0.1000000000E+03
         0.1217000000E+09     0.1000000000E+03
         0.1217000000E+09     0.1000000000E+03
         0.1218000000E+09     0.1000000000E+03
         0.1219000000E+09     0.1000000000E+03
         0.1220000000E+09     0.1000000000E+03
         0.1221000000E+09     0.1000000000E+03
         0.1222000000E+09     0.1000000000E+03
         0.1223000000E+09     0.1000000000E+03
         0.1223000000E+09     0.1000000000E+03
         0.1224000000E+09     0.1000000000E+03
         0.1225000000E+09     0.1000000000E+03
         0.1226000000E+09     0.1000000000E+03
         0.1227000000E+09     0.1000000000E+03
         0.1228000000E+09     0.1000000000E+03
         0.1229000000E+09     0.1000000000E+03
         0.1230000000E+09     0.1000000000E+03
         0.1231000000E+09     0.1000000000E+03
         0.1232000000E+09     0.1000000000E+03
         0.1233000000E+09     0.1000000000E+03
         0.1233000000E+09     0.1000000000E+03
         0.1234000000E+09     0.1000000000E+03
         0.1235000000E+09     0.1000000000E+03
         0.1236000000E+09     0.1000000000E+03
         0.1237000000E+09     0.1000000000E+03
         0.1238000000E+09     0.1000000000E+03
         0.1239000000E+09     0.1000000000E+03
         0.1239000000E+09     0.1000000000E+03
         0.1240000000E+09     0.1000000000E+03
         0.1241000000E+09     0.1000000000E+03
         0.1242000000E+09     0.1000000000E+03
         0.1243000000E+09     0.1000000000E+03
         0.1244000000E+09     0.1000000000E+03
         0.1245000000E+09     0.1000000000E+03
         0.1245000000E+09     0.1000000000E+03
         0.1246000000E+09     0.1000000000E+03
         0.1247000000E+09     0.1000000000E+03
         0.1248000000E+09     0.1000000000E+03
         0.1249000000E+09     0.1000000000E+03
         0.1250000000E+09     0.1000000000E+03
         0.1251000000E+09     0.1000000000E+03
         0.1252000000E+09     0.1000000000E+03
         0.1253000000E+09     0.1000000000E+03
         0.1254000000E+09     0.1000000000E+03
         0.1255000000E+09     0.1000000000E+03
         0.1255000000E+09     0.1000000000E+03
         0.1256000000E+09     0.1000000000E+03
         0.1257000000E+09     0.1000000000E+03
         0.1258000000E+09     0.1000000000E+03
         0.1259000000E+09     0.1000000000E+03
         0.1260000000E+09     0.1000000000E+03



            AREAL INFILTRATION RATE
 READING ON UNIT   19 WITH FORMAT: (10F4.0)            

            1           2           3           4           5           6           7           8           9          10
 ........................................................................................................................
   1   1.0000E-10  2.0000E-10   0.000       0.000       0.000       0.000       0.000       0.000       0.000       0.000    
   2   2.0000E-10  1.0000E-10  2.0000E-10   0.000       0.000      8.0000E-10  8.0000E-10  5.0000E-10   0.000       0.000    
   3    0.000      5.0000E-10  1.0000E-10  1.0000E-10  8.0000E-10  8.0000E-10  5.0000E-10  5.0000E-10   0.000       0.000    
   4   8.0000E-10  5.0000E-10  1.0000E-10  1.0000E-10  1.0000E-10  1.0000E-10  1.0000E-10  1.0000E-10  2.0000E-10   0.000    
   5   8.0000E-10  5.0000E-10  1.0000E-10  1.0000E-10  1.0000E-10  1.0000E-10  1.0000E-10  1.0000E-10  1.0000E-10  1.0000E-10
   6   8.0000E-10  5.0000E-10  5.0000E-10  2.0000E-10  2.0000E-10  1.0000E-10  1.0000E-10  1.0000E-10  1.0000E-10  5.0000E-10
   7   8.0000E-10  5.0000E-10  5.0000E-10  2.0000E-10  2.0000E-10  1.0000E-10  1.0000E-10  2.0000E-10  2.0000E-10   0.000    
   8    0.000      5.0000E-10  5.0000E-10  2.0000E-10  2.0000E-10  1.0000E-10  1.0000E-10  2.0000E-10  5.0000E-10   0.000    
   9    0.000      5.0000E-10  5.0000E-10  2.0000E-10  2.0000E-10  1.0000E-10  1.0000E-10  2.0000E-10  5.0000E-10   0.000    
  10    0.000      5.0000E-10  5.0000E-10  2.0000E-10  2.0000E-10  1.0000E-10  1.0000E-10  2.0000E-10  5.0000E-10  8.0000E-10
  11    0.000      1.0000E-10  1.0000E-10  1.0000E-10  1.0000E-10  1.0000E-10  1.0000E-10  2.0000E-10  5.0000E-10   0.000    
  12   1.0000E-10  1.0000E-10  1.0000E-10  1.0000E-10  1.0000E-10  1.0000E-10  1.0000E-10  1.0000E-10  2.0000E-10   0.000    
  13   1.0000E-10  1.0000E-10  2.0000E-10  2.0000E-10  2.0000E-10  2.0000E-10  2.0000E-10  1.0000E-10  1.0000E-10   0.000    
  14    0.000      2.0000E-10  5.0000E-10  5.0000E-10  5.0000E-10  5.0000E-10  5.0000E-10  2.0000E-10  1.0000E-10   0.000    
  15    0.000       0.000      8.0000E-10  8.0000E-10  8.0000E-10  8.0000E-10   0.000       0.000       0.000       0.000    

                  ET RATE =  1.000000E-08

      ET EXTINCTION DEPTH =  0.500000    

 EXTINCTION WATER CONTENT =  0.200000    

EXTINCTION WATER CONTENT FOR CELL AT ROW     1, COLUMN     1 IS LESS THAN RESIDUAL WATER CONTENT-- SETTING EXTINCTION WATER CONTENT EQUAL TO RESIDUAL WATER CONTENT

EXTINCTION WATER CONTENT FOR CELL AT ROW     1, COLUMN     2 IS LESS THAN RESIDUAL WATER CONTENT-- SETTING EXTINCTION WATER CONTENT EQUAL TO RESIDUAL WATER CONTENT

EXTINCTION WATER CONTENT FOR CELL AT ROW     2, COLUMN     1 IS LESS THAN RESIDUAL WATER CONTENT-- SETTING EXTINCTION WATER CONTENT EQUAL TO RESIDUAL WATER CONTENT

EXTINCTION WATER CONTENT FOR CELL AT ROW     2, COLUMN     2 IS LESS THAN RESIDUAL WATER CONTENT-- SETTING EXTINCTION WATER CONTENT EQUAL TO RESIDUAL WATER CONTENT

EXTINCTION WATER CONTENT FOR CELL AT ROW     2, COLUMN     3 IS LESS THAN RESIDUAL WATER CONTENT-- SETTING EXTINCTION WATER CONTENT EQUAL TO RESIDUAL WATER CONTENT

EXTINCTION WATER CONTENT FOR CELL AT ROW     2, COLUMN     6 IS LESS THAN RESIDUAL WATER CONTENT-- SETTING EXTINCTION WATER CONTENT EQUAL TO RESIDUAL WATER CONTENT

EXTINCTION WATER CONTENT FOR CELL AT ROW     2, COLUMN     7 IS LESS THAN RESIDUAL WATER CONTENT-- SETTING EXTINCTION WATER CONTENT EQUAL TO RESIDUAL WATER CONTENT

EXTINCTION WATER CONTENT FOR CELL AT ROW     2, COLUMN     8 IS LESS THAN RESIDUAL WATER CONTENT-- SETTING EXTINCTION WATER CONTENT EQUAL TO RESIDUAL WATER CONTENT

EXTINCTION WATER CONTENT FOR CELL AT ROW     3, COLUMN     2 IS LESS THAN RESIDUAL WATER CONTENT-- SETTING EXTINCTION WATER CONTENT EQUAL TO RESIDUAL WATER CONTENT

EXTINCTION WATER CONTENT FOR CELL AT ROW     3, COLUMN     3 IS LESS THAN RESIDUAL WATER CONTENT-- SETTING EXTINCTION WATER CONTENT EQUAL TO RESIDUAL WATER CONTENT

EXTINCTION WATER CONTENT FOR CELL AT ROW     3, COLUMN     4 IS LESS THAN RESIDUAL WATER CONTENT-- SETTING EXTINCTION WATER CONTENT EQUAL TO RESIDUAL WATER CONTENT

EXTINCTION WATER CONTENT FOR CELL AT ROW     3, COLUMN     5 IS LESS THAN RESIDUAL WATER CONTENT-- SETTING EXTINCTION WATER CONTENT EQUAL TO RESIDUAL WATER CONTENT

EXTINCTION WATER CONTENT FOR CELL AT ROW     3, COLUMN     6 IS LESS THAN RESIDUAL WATER CONTENT-- SETTING EXTINCTION WATER CONTENT EQUAL TO RESIDUAL WATER CONTENT

EXTINCTION WATER CONTENT FOR CELL AT ROW     3, COLUMN     7 IS LESS THAN RESIDUAL WATER CONTENT-- SETTING EXTINCTION WATER CONTENT EQUAL TO RESIDUAL WATER CONTENT

EXTINCTION WATER CONTENT FOR CELL AT ROW     3, COLUMN     8 IS LESS THAN RESIDUAL WATER CONTENT-- SETTING EXTINCTION WATER CONTENT EQUAL TO RESIDUAL WATER CONTENT

EXTINCTION WATER CONTENT FOR CELL AT ROW     4, COLUMN     1 IS LESS THAN RESIDUAL WATER CONTENT-- SETTING EXTINCTION WATER CONTENT EQUAL TO RESIDUAL WATER CONTENT

EXTINCTION WATER CONTENT FOR CELL AT ROW     4, COLUMN     2 IS LESS THAN RESIDUAL WATER CONTENT-- SETTING EXTINCTION WATER CONTENT EQUAL TO RESIDUAL WATER CONTENT

EXTINCTION WATER CONTENT FOR CELL AT ROW     4, COLUMN     3 IS LESS THAN RESIDUAL WATER CONTENT-- SETTING EXTINCTION WATER CONTENT EQUAL TO RESIDUAL WATER CONTENT

EXTINCTION WATER CONTENT FOR CELL AT ROW     4, COLUMN     4 IS LESS THAN RESIDUAL WATER CONTENT-- SETTING EXTINCTION WATER CONTENT EQUAL TO RESIDUAL WATER CONTENT

EXTINCTION WATER CONTENT FOR CELL AT ROW     4, COLUMN     5 IS LESS THAN RESIDUAL WATER CONTENT-- SETTING EXTINCTION WATER CONTENT EQUAL TO RESIDUAL WATER CONTENT

EXTINCTION WATER CONTENT FOR CELL AT ROW     4, COLUMN     6 IS LESS THAN RESIDUAL WATER CONTENT-- SETTING EXTINCTION WATER CONTENT EQUAL TO RESIDUAL WATER CONTENT

EXTINCTION WATER CONTENT FOR CELL AT ROW     4, COLUMN     7 IS LESS THAN RESIDUAL WATER CONTENT-- SETTING EXTINCTION WATER CONTENT EQUAL TO RESIDUAL WATER CONTENT

EXTINCTION WATER CONTENT FOR CELL AT ROW     4, COLUMN     8 IS LESS THAN RESIDUAL WATER CONTENT-- SETTING EXTINCTION WATER CONTENT EQUAL TO RESIDUAL WATER CONTENT

EXTINCTION WATER CONTENT FOR CELL AT ROW     4, COLUMN     9 IS LESS THAN RESIDUAL WATER CONTENT-- SETTING EXTINCTION WATER CONTENT EQUAL TO RESIDUAL WATER CONTENT

EXTINCTION WATER CONTENT FOR CELL AT ROW     5, COLUMN     1 IS LESS THAN RESIDUAL WATER CONTENT-- SETTING EXTINCTION WATER CONTENT EQUAL TO RESIDUAL WATER CONTENT

EXTINCTION WATER CONTENT FOR CELL AT ROW     5, COLUMN     2 IS LESS THAN RESIDUAL WATER CONTENT-- SETTING EXTINCTION WATER CONTENT EQUAL TO RESIDUAL WATER CONTENT

EXTINCTION WATER CONTENT FOR CELL AT ROW     5, COLUMN     3 IS LESS THAN RESIDUAL WATER CONTENT-- SETTING EXTINCTION WATER CONTENT EQUAL TO RESIDUAL WATER CONTENT

EXTINCTION WATER CONTENT FOR CELL AT ROW     5, COLUMN     4 IS LESS THAN RESIDUAL WATER CONTENT-- SETTING EXTINCTION WATER CONTENT EQUAL TO RESIDUAL WATER CONTENT

EXTINCTION WATER CONTENT FOR CELL AT ROW     5, COLUMN     5 IS LESS THAN RESIDUAL WATER CONTENT-- SETTING EXTINCTION WATER CONTENT EQUAL TO RESIDUAL WATER CONTENT

EXTINCTION WATER CONTENT FOR CELL AT ROW     5, COLUMN     6 IS LESS THAN RESIDUAL WATER CONTENT-- SETTING EXTINCTION WATER CONTENT EQUAL TO RESIDUAL WATER CONTENT

EXTINCTION WATER CONTENT FOR CELL AT ROW     5, COLUMN     7 IS LESS THAN RESIDUAL WATER CONTENT-- SETTING EXTINCTION WATER CONTENT EQUAL TO RESIDUAL WATER CONTENT

EXTINCTION WATER CONTENT FOR CELL AT ROW     5, COLUMN     8 IS LESS THAN RESIDUAL WATER CONTENT-- SETTING EXTINCTION WATER CONTENT EQUAL TO RESIDUAL WATER CONTENT

EXTINCTION WATER CONTENT FOR CELL AT ROW     5, COLUMN     9 IS LESS THAN RESIDUAL WATER CONTENT-- SETTING EXTINCTION WATER CONTENT EQUAL TO RESIDUAL WATER CONTENT

EXTINCTION WATER CONTENT FOR CELL AT ROW     5, COLUMN    10 IS LESS THAN RESIDUAL WATER CONTENT-- SETTING EXTINCTION WATER CONTENT EQUAL TO RESIDUAL WATER CONTENT

EXTINCTION WATER CONTENT FOR CELL AT ROW     6, COLUMN     1 IS LESS THAN RESIDUAL WATER CONTENT-- SETTING EXTINCTION WATER CONTENT EQUAL TO RESIDUAL WATER CONTENT

EXTINCTION WATER CONTENT FOR CELL AT ROW     6, COLUMN     2 IS LESS THAN RESIDUAL WATER CONTENT-- SETTING EXTINCTION WATER CONTENT EQUAL TO RESIDUAL WATER CONTENT

EXTINCTION WATER CONTENT FOR CELL AT ROW     6, COLUMN     3 IS LESS THAN RESIDUAL WATER CONTENT-- SETTING EXTINCTION WATER CONTENT EQUAL TO RESIDUAL WATER CONTENT

EXTINCTION WATER CONTENT FOR CELL AT ROW     6, COLUMN     4 IS LESS THAN RESIDUAL WATER CONTENT-- SETTING EXTINCTION WATER CONTENT EQUAL TO RESIDUAL WATER CONTENT

EXTINCTION WATER CONTENT FOR CELL AT ROW     6, COLUMN     5 IS LESS THAN RESIDUAL WATER CONTENT-- SETTING EXTINCTION WATER CONTENT EQUAL TO RESIDUAL WATER CONTENT

EXTINCTION WATER CONTENT FOR CELL AT ROW     6, COLUMN     6 IS LESS THAN RESIDUAL WATER CONTENT-- SETTING EXTINCTION WATER CONTENT EQUAL TO RESIDUAL WATER CONTENT

EXTINCTION WATER CONTENT FOR CELL AT ROW     6, COLUMN     7 IS LESS THAN RESIDUAL WATER CONTENT-- SETTING EXTINCTION WATER CONTENT EQUAL TO RESIDUAL WATER CONTENT

EXTINCTION WATER CONTENT FOR CELL AT ROW     6, COLUMN     8 IS LESS THAN RESIDUAL WATER CONTENT-- SETTING EXTINCTION WATER CONTENT EQUAL TO RESIDUAL WATER CONTENT

EXTINCTION WATER CONTENT FOR CELL AT ROW     6, COLUMN     9 IS LESS THAN RESIDUAL WATER CONTENT-- SETTING EXTINCTION WATER CONTENT EQUAL TO RESIDUAL WATER CONTENT

EXTINCTION WATER CONTENT FOR CELL AT ROW     6, COLUMN    10 IS LESS THAN RESIDUAL WATER CONTENT-- SETTING EXTINCTION WATER CONTENT EQUAL TO RESIDUAL WATER CONTENT

EXTINCTION WATER CONTENT FOR CELL AT ROW     7, COLUMN     1 IS LESS THAN RESIDUAL WATER CONTENT-- SETTING EXTINCTION WATER CONTENT EQUAL TO RESIDUAL WATER CONTENT

EXTINCTION WATER CONTENT FOR CELL AT ROW     7, COLUMN     2 IS LESS THAN RESIDUAL WATER CONTENT-- SETTING EXTINCTION WATER CONTENT EQUAL TO RESIDUAL WATER CONTENT

EXTINCTION WATER CONTENT FOR CELL AT ROW     7, COLUMN     3 IS LESS THAN RESIDUAL WATER CONTENT-- SETTING EXTINCTION WATER CONTENT EQUAL TO RESIDUAL WATER CONTENT

EXTINCTION WATER CONTENT FOR CELL AT ROW     7, COLUMN     4 IS LESS THAN RESIDUAL WATER CONTENT-- SETTING EXTINCTION WATER CONTENT EQUAL TO RESIDUAL WATER CONTENT

EXTINCTION WATER CONTENT FOR CELL AT ROW     7, COLUMN     5 IS LESS THAN RESIDUAL WATER CONTENT-- SETTING EXTINCTION WATER CONTENT EQUAL TO RESIDUAL WATER CONTENT

EXTINCTION WATER CONTENT FOR CELL AT ROW     7, COLUMN     6 IS LESS THAN RESIDUAL WATER CONTENT-- SETTING EXTINCTION WATER CONTENT EQUAL TO RESIDUAL WATER CONTENT

EXTINCTION WATER CONTENT FOR CELL AT ROW     7, COLUMN     7 IS LESS THAN RESIDUAL WATER CONTENT-- SETTING EXTINCTION WATER CONTENT EQUAL TO RESIDUAL WATER CONTENT

EXTINCTION WATER CONTENT FOR CELL AT ROW     7, COLUMN     8 IS LESS THAN RESIDUAL WATER CONTENT-- SETTING EXTINCTION WATER CONTENT EQUAL TO RESIDUAL WATER CONTENT

EXTINCTION WATER CONTENT FOR CELL AT ROW     7, COLUMN     9 IS LESS THAN RESIDUAL WATER CONTENT-- SETTING EXTINCTION WATER CONTENT EQUAL TO RESIDUAL WATER CONTENT

EXTINCTION WATER CONTENT FOR CELL AT ROW     8, COLUMN     2 IS LESS THAN RESIDUAL WATER CONTENT-- SETTING EXTINCTION WATER CONTENT EQUAL TO RESIDUAL WATER CONTENT

EXTINCTION WATER CONTENT FOR CELL AT ROW     8, COLUMN     3 IS LESS THAN RESIDUAL WATER CONTENT-- SETTING EXTINCTION WATER CONTENT EQUAL TO RESIDUAL WATER CONTENT

EXTINCTION WATER CONTENT FOR CELL AT ROW     8, COLUMN     4 IS LESS THAN RESIDUAL WATER CONTENT-- SETTING EXTINCTION WATER CONTENT EQUAL TO RESIDUAL WATER CONTENT

EXTINCTION WATER CONTENT FOR CELL AT ROW     8, COLUMN     5 IS LESS THAN RESIDUAL WATER CONTENT-- SETTING EXTINCTION WATER CONTENT EQUAL TO RESIDUAL WATER CONTENT

EXTINCTION WATER CONTENT FOR CELL AT ROW     8, COLUMN     6 IS LESS THAN RESIDUAL WATER CONTENT-- SETTING EXTINCTION WATER CONTENT EQUAL TO RESIDUAL WATER CONTENT

EXTINCTION WATER CONTENT FOR CELL AT ROW     8, COLUMN     7 IS LESS THAN RESIDUAL WATER CONTENT-- SETTING EXTINCTION WATER CONTENT EQUAL TO RESIDUAL WATER CONTENT

EXTINCTION WATER CONTENT FOR CELL AT ROW     8, COLUMN     8 IS LESS THAN RESIDUAL WATER CONTENT-- SETTING EXTINCTION WATER CONTENT EQUAL TO RESIDUAL WATER CONTENT

EXTINCTION WATER CONTENT FOR CELL AT ROW     8, COLUMN     9 IS LESS THAN RESIDUAL WATER CONTENT-- SETTING EXTINCTION WATER CONTENT EQUAL TO RESIDUAL WATER CONTENT

EXTINCTION WATER CONTENT FOR CELL AT ROW     9, COLUMN     2 IS LESS THAN RESIDUAL WATER CONTENT-- SETTING EXTINCTION WATER CONTENT EQUAL TO RESIDUAL WATER CONTENT

EXTINCTION WATER CONTENT FOR CELL AT ROW     9, COLUMN     3 IS LESS THAN RESIDUAL WATER CONTENT-- SETTING EXTINCTION WATER CONTENT EQUAL TO RESIDUAL WATER CONTENT

EXTINCTION WATER CONTENT FOR CELL AT ROW     9, COLUMN     4 IS LESS THAN RESIDUAL WATER CONTENT-- SETTING EXTINCTION WATER CONTENT EQUAL TO RESIDUAL WATER CONTENT

EXTINCTION WATER CONTENT FOR CELL AT ROW     9, COLUMN     5 IS LESS THAN RESIDUAL WATER CONTENT-- SETTING EXTINCTION WATER CONTENT EQUAL TO RESIDUAL WATER CONTENT

EXTINCTION WATER CONTENT FOR CELL AT ROW     9, COLUMN     6 IS LESS THAN RESIDUAL WATER CONTENT-- SETTING EXTINCTION WATER CONTENT EQUAL TO RESIDUAL WATER CONTENT

EXTINCTION WATER CONTENT FOR CELL AT ROW     9, COLUMN     7 IS LESS THAN RESIDUAL WATER CONTENT-- SETTING EXTINCTION WATER CONTENT EQUAL TO RESIDUAL WATER CONTENT

EXTINCTION WATER CONTENT FOR CELL AT ROW     9, COLUMN     8 IS LESS THAN RESIDUAL WATER CONTENT-- SETTING EXTINCTION WATER CONTENT EQUAL TO RESIDUAL WATER CONTENT

EXTINCTION WATER CONTENT FOR CELL AT ROW     9, COLUMN     9 IS LESS THAN RESIDUAL WATER CONTENT-- SETTING EXTINCTION WATER CONTENT EQUAL TO RESIDUAL WATER CONTENT

EXTINCTION WATER CONTENT FOR CELL AT ROW    10, COLUMN     2 IS LESS THAN RESIDUAL WATER CONTENT-- SETTING EXTINCTION WATER CONTENT EQUAL TO RESIDUAL WATER CONTENT

EXTINCTION WATER CONTENT FOR CELL AT ROW    10, COLUMN     3 IS LESS THAN RESIDUAL WATER CONTENT-- SETTING EXTINCTION WATER CONTENT EQUAL TO RESIDUAL WATER CONTENT

EXTINCTION WATER CONTENT FOR CELL AT ROW    10, COLUMN     4 IS LESS THAN RESIDUAL WATER CONTENT-- SETTING EXTINCTION WATER CONTENT EQUAL TO RESIDUAL WATER CONTENT

EXTINCTION WATER CONTENT FOR CELL AT ROW    10, COLUMN     5 IS LESS THAN RESIDUAL WATER CONTENT-- SETTING EXTINCTION WATER CONTENT EQUAL TO RESIDUAL WATER CONTENT

EXTINCTION WATER CONTENT FOR CELL AT ROW    10, COLUMN     6 IS LESS THAN RESIDUAL WATER CONTENT-- SETTING EXTINCTION WATER CONTENT EQUAL TO RESIDUAL WATER CONTENT

EXTINCTION WATER CONTENT FOR CELL AT ROW    10, COLUMN     7 IS LESS THAN RESIDUAL WATER CONTENT-- SETTING EXTINCTION WATER CONTENT EQUAL TO RESIDUAL WATER CONTENT

EXTINCTION WATER CONTENT FOR CELL AT ROW    10, COLUMN     8 IS LESS THAN RESIDUAL WATER CONTENT-- SETTING EXTINCTION WATER CONTENT EQUAL TO RESIDUAL WATER CONTENT

EXTINCTION WATER CONTENT FOR CELL AT ROW    10, COLUMN     9 IS LESS THAN RESIDUAL WATER CONTENT-- SETTING EXTINCTION WATER CONTENT EQUAL TO RESIDUAL WATER CONTENT

EXTINCTION WATER CONTENT FOR CELL AT ROW    10, COLUMN    10 IS LESS THAN RESIDUAL WATER CONTENT-- SETTING EXTINCTION WATER CONTENT EQUAL TO RESIDUAL WATER CONTENT

EXTINCTION WATER CONTENT FOR CELL AT ROW    11, COLUMN     2 IS LESS THAN RESIDUAL WATER CONTENT-- SETTING EXTINCTION WATER CONTENT EQUAL TO RESIDUAL WATER CONTENT

EXTINCTION WATER CONTENT FOR CELL AT ROW    11, COLUMN     3 IS LESS THAN RESIDUAL WATER CONTENT-- SETTING EXTINCTION WATER CONTENT EQUAL TO RESIDUAL WATER CONTENT

EXTINCTION WATER CONTENT FOR CELL AT ROW    11, COLUMN     4 IS LESS THAN RESIDUAL WATER CONTENT-- SETTING EXTINCTION WATER CONTENT EQUAL TO RESIDUAL WATER CONTENT

EXTINCTION WATER CONTENT FOR CELL AT ROW    11, COLUMN     5 IS LESS THAN RESIDUAL WATER CONTENT-- SETTING EXTINCTION WATER CONTENT EQUAL TO RESIDUAL WATER CONTENT

EXTINCTION WATER CONTENT FOR CELL AT ROW    11, COLUMN     6 IS LESS THAN RESIDUAL WATER CONTENT-- SETTING EXTINCTION WATER CONTENT EQUAL TO RESIDUAL WATER CONTENT

EXTINCTION WATER CONTENT FOR CELL AT ROW    11, COLUMN     7 IS LESS THAN RESIDUAL WATER CONTENT-- SETTING EXTINCTION WATER CONTENT EQUAL TO RESIDUAL WATER CONTENT

EXTINCTION WATER CONTENT FOR CELL AT ROW    11, COLUMN     8 IS LESS THAN RESIDUAL WATER CONTENT-- SETTING EXTINCTION WATER CONTENT EQUAL TO RESIDUAL WATER CONTENT

EXTINCTION WATER CONTENT FOR CELL AT ROW    11, COLUMN     9 IS LESS THAN RESIDUAL WATER CONTENT-- SETTING EXTINCTION WATER CONTENT EQUAL TO RESIDUAL WATER CONTENT

EXTINCTION WATER CONTENT FOR CELL AT ROW    12, COLUMN     1 IS LESS THAN RESIDUAL WATER CONTENT-- SETTING EXTINCTION WATER CONTENT EQUAL TO RESIDUAL WATER CONTENT

EXTINCTION WATER CONTENT FOR CELL AT ROW    12, COLUMN     2 IS LESS THAN RESIDUAL WATER CONTENT-- SETTING EXTINCTION WATER CONTENT EQUAL TO RESIDUAL WATER CONTENT

EXTINCTION WATER CONTENT FOR CELL AT ROW    12, COLUMN     3 IS LESS THAN RESIDUAL WATER CONTENT-- SETTING EXTINCTION WATER CONTENT EQUAL TO RESIDUAL WATER CONTENT

EXTINCTION WATER CONTENT FOR CELL AT ROW    12, COLUMN     4 IS LESS THAN RESIDUAL WATER CONTENT-- SETTING EXTINCTION WATER CONTENT EQUAL TO RESIDUAL WATER CONTENT

EXTINCTION WATER CONTENT FOR CELL AT ROW    12, COLUMN     5 IS LESS THAN RESIDUAL WATER CONTENT-- SETTING EXTINCTION WATER CONTENT EQUAL TO RESIDUAL WATER CONTENT

EXTINCTION WATER CONTENT FOR CELL AT ROW    12, COLUMN     6 IS LESS THAN RESIDUAL WATER CONTENT-- SETTING EXTINCTION WATER CONTENT EQUAL TO RESIDUAL WATER CONTENT

EXTINCTION WATER CONTENT FOR CELL AT ROW    12, COLUMN     7 IS LESS THAN RESIDUAL WATER CONTENT-- SETTING EXTINCTION WATER CONTENT EQUAL TO RESIDUAL WATER CONTENT

EXTINCTION WATER CONTENT FOR CELL AT ROW    12, COLUMN     8 IS LESS THAN RESIDUAL WATER CONTENT-- SETTING EXTINCTION WATER CONTENT EQUAL TO RESIDUAL WATER CONTENT

EXTINCTION WATER CONTENT FOR CELL AT ROW    12, COLUMN     9 IS LESS THAN RESIDUAL WATER CONTENT-- SETTING EXTINCTION WATER CONTENT EQUAL TO RESIDUAL WATER CONTENT

EXTINCTION WATER CONTENT FOR CELL AT ROW    13, COLUMN     1 IS LESS THAN RESIDUAL WATER CONTENT-- SETTING EXTINCTION WATER CONTENT EQUAL TO RESIDUAL WATER CONTENT

EXTINCTION WATER CONTENT FOR CELL AT ROW    13, COLUMN     2 IS LESS THAN RESIDUAL WATER CONTENT-- SETTING EXTINCTION WATER CONTENT EQUAL TO RESIDUAL WATER CONTENT

EXTINCTION WATER CONTENT FOR CELL AT ROW    13, COLUMN     3 IS LESS THAN RESIDUAL WATER CONTENT-- SETTING EXTINCTION WATER CONTENT EQUAL TO RESIDUAL WATER CONTENT

EXTINCTION WATER CONTENT FOR CELL AT ROW    13, COLUMN     4 IS LESS THAN RESIDUAL WATER CONTENT-- SETTING EXTINCTION WATER CONTENT EQUAL TO RESIDUAL WATER CONTENT

EXTINCTION WATER CONTENT FOR CELL AT ROW    13, COLUMN     5 IS LESS THAN RESIDUAL WATER CONTENT-- SETTING EXTINCTION WATER CONTENT EQUAL TO RESIDUAL WATER CONTENT

EXTINCTION WATER CONTENT FOR CELL AT ROW    13, COLUMN     6 IS LESS THAN RESIDUAL WATER CONTENT-- SETTING EXTINCTION WATER CONTENT EQUAL TO RESIDUAL WATER CONTENT

EXTINCTION WATER CONTENT FOR CELL AT ROW    13, COLUMN     7 IS LESS THAN RESIDUAL WATER CONTENT-- SETTING EXTINCTION WATER CONTENT EQUAL TO RESIDUAL WATER CONTENT

EXTINCTION WATER CONTENT FOR CELL AT ROW    13, COLUMN     8 IS LESS THAN RESIDUAL WATER CONTENT-- SETTING EXTINCTION WATER CONTENT EQUAL TO RESIDUAL WATER CONTENT

EXTINCTION WATER CONTENT FOR CELL AT ROW    13, COLUMN     9 IS LESS THAN RESIDUAL WATER CONTENT-- SETTING EXTINCTION WATER CONTENT EQUAL TO RESIDUAL WATER CONTENT

EXTINCTION WATER CONTENT FOR CELL AT ROW    14, COLUMN     2 IS LESS THAN RESIDUAL WATER CONTENT-- SETTING EXTINCTION WATER CONTENT EQUAL TO RESIDUAL WATER CONTENT

EXTINCTION WATER CONTENT FOR CELL AT ROW    14, COLUMN     3 IS LESS THAN RESIDUAL WATER CONTENT-- SETTING EXTINCTION WATER CONTENT EQUAL TO RESIDUAL WATER CONTENT

EXTINCTION WATER CONTENT FOR CELL AT ROW    14, COLUMN     4 IS LESS THAN RESIDUAL WATER CONTENT-- SETTING EXTINCTION WATER CONTENT EQUAL TO RESIDUAL WATER CONTENT

EXTINCTION WATER CONTENT FOR CELL AT ROW    14, COLUMN     5 IS LESS THAN RESIDUAL WATER CONTENT-- SETTING EXTINCTION WATER CONTENT EQUAL TO RESIDUAL WATER CONTENT

EXTINCTION WATER CONTENT FOR CELL AT ROW    14, COLUMN     6 IS LESS THAN RESIDUAL WATER CONTENT-- SETTING EXTINCTION WATER CONTENT EQUAL TO RESIDUAL WATER CONTENT

EXTINCTION WATER CONTENT FOR CELL AT ROW    14, COLUMN     7 IS LESS THAN RESIDUAL WATER CONTENT-- SETTING EXTINCTION WATER CONTENT EQUAL TO RESIDUAL WATER CONTENT

EXTINCTION WATER CONTENT FOR CELL AT ROW    14, COLUMN     8 IS LESS THAN RESIDUAL WATER CONTENT-- SETTING EXTINCTION WATER CONTENT EQUAL TO RESIDUAL WATER CONTENT

EXTINCTION WATER CONTENT FOR CELL AT ROW    14, COLUMN     9 IS LESS THAN RESIDUAL WATER CONTENT-- SETTING EXTINCTION WATER CONTENT EQUAL TO RESIDUAL WATER CONTENT

EXTINCTION WATER CONTENT FOR CELL AT ROW    15, COLUMN     3 IS LESS THAN RESIDUAL WATER CONTENT-- SETTING EXTINCTION WATER CONTENT EQUAL TO RESIDUAL WATER CONTENT

EXTINCTION WATER CONTENT FOR CELL AT ROW    15, COLUMN     4 IS LESS THAN RESIDUAL WATER CONTENT-- SETTING EXTINCTION WATER CONTENT EQUAL TO RESIDUAL WATER CONTENT

EXTINCTION WATER CONTENT FOR CELL AT ROW    15, COLUMN     5 IS LESS THAN RESIDUAL WATER CONTENT-- SETTING EXTINCTION WATER CONTENT EQUAL TO RESIDUAL WATER CONTENT

EXTINCTION WATER CONTENT FOR CELL AT ROW    15, COLUMN     6 IS LESS THAN RESIDUAL WATER CONTENT-- SETTING EXTINCTION WATER CONTENT EQUAL TO RESIDUAL WATER CONTENT

       AIR ENTRY PRESSURE =  -1.10000    

            ROOT PRESSURE =  -75.0000    

            ROOT ACTIVITY =   1.00000    
 # AG segment list

 PROCESSING SEGMENT LIST

 FINISHED READING SEGMENT LIST
 # AG well list

 PROCESSING WELL LIST

 LAYER   ROW   COL   MAX STRESS RATE         
 --------------------------------------------
      1      1      6      4      -100.0    
      2      1      6      5      -100.0    
      3      1      7      4      -100.0    
      4      1      7      5      -100.0    
      5      1      8      4      -100.0    
      6      1      8      5      -100.0    

 FINISHED READING WELL LIST
 # AG stress period

      6 WELLS

 PROCESSING AG STRESS PERIOD DATA

 READING AG STRESS PERIOD DATA

 READING IRRIGATION SEGMENT

 READING IRRIGATION WELL

 READING SUPPLEMENTAL WELL

 NO IRRPOND OR REUSING IRRPOND DATA FROM LAST STRESS PERIOD

 END PROCESSING AG STRESS PERIOD DATA OPTIONS
 
 SOLVING FOR HEAD 
                                                   Max.-Head-Change                         Max.-Flux-Residual
  Residual-Control   Outer-Iter.   Inner-Iter.     Column Row Layer    Maximum-Head-Change  Column Row Layer    Maximum-Flux-Residual          L2-NORM 
          0                 1           6             2    2     1      -0.3091902064E+02       3    3    1        -0.3387725593E+01      0.9438782865E+01
          0                 2           6             1    1     1      -0.3160283292E+02       1   13    1        -0.6317714402E+02      0.6341706057E+02
          0                 3           5             1    1     1      -0.1218344574E+01       1   13    1        -0.2090503639E+01      0.2852988538E+01
          0                 4           5             5   13     1      -0.3531913407E+00       5   13    1        -0.5902046470E+00      0.6060818052E+00
          0                 5           4             5   14     1       0.5787723920E-01       5   13    1         0.2547336429E-01      0.4765602283E-01
          0                 6           2             5   14     1      -0.2238284060E-02       5   12    1        -0.2373325674E-02      0.3894923016E-02
          0                 7           1             5   12     1       0.4405428811E-04       5   12    1         0.1191611464E-03      0.1657509654E-03

    ------------------------------------------------
       NWT REQUIRED            7 OUTER ITERATIONS 
       AND A TOTAL OF         29 INNER ITERATIONS.
    ------------------------------------------------

 OUTPUT CONTROL FOR STRESS PERIOD    1   TIME STEP    1
    PRINT BUDGET
    PRINT HEAD FOR ALL LAYERS
    SAVE BUDGET
    SAVE HEAD FOR ALL LAYERS
 UBDSV2 SAVING "   CONSTANT HEAD" ON UNIT 102 AT TIME STEP 1, STRESS PERIOD 1
 UBDSV1 SAVING "FLOW RIGHT FACE " ON UNIT 102 AT TIME STEP 1, STRESS PERIOD 1
 UBDSV1 SAVING "FLOW FRONT FACE " ON UNIT 102 AT TIME STEP 1, STRESS PERIOD 1

  HEAD DEP BOUNDS   PERIOD    1   STEP     1
 BOUNDARY      1   LAYER   1   ROW    13   COL     1   RATE   -0.286536    
 BOUNDARY      2   LAYER   1   ROW    14   COL     9   RATE    0.287755    



 STREAM LISTING     PERIOD      1   STEP        1

 LAYER ROW COL. STREAM  RCH.  FLOW INTO     FLOW TO   FLOW OUT OF   OVRLND.     DIRECT     STREAM       STREAM     STREAM     STREAM   STREAMBED  STREAMBED
                SEG.NO.  NO.  STRM. RCH.    AQUIFER    STRM. RCH.    RUNOFF     PRECIP       ET          HEAD       DEPTH      WIDTH   CONDCTNC.   GRADIENT

   1    1    1     1     1    1.8750E+00  6.5285E-02   1.8097E+00  0.000E+00  0.000E+00  0.000E+00  1.09358E+03  5.296E-01  4.110E+00  1.850E-02  1.177E+00
   1    2    2     1     2    1.8097E+00  1.0002E-01   1.7097E+00  0.000E+00  0.000E+00  0.000E+00  1.08858E+03  5.186E-01  4.061E+00  2.843E-02  1.173E+00
   1    3    3     1     3    1.7097E+00  8.4225E-02   1.6255E+00  0.000E+00  0.000E+00  0.000E+00  1.08292E+03  5.059E-01  4.004E+00  2.402E-02  1.169E+00
   1    3    4     1     4    1.6255E+00  7.6652E-02   1.5488E+00  0.000E+00  0.000E+00  0.000E+00  1.07790E+03  4.946E-01  3.952E+00  2.193E-02  1.165E+00
   1    4    5     2     1    0.0000E+00  0.0000E+00   0.0000E+00  0.000E+00  0.000E+00  0.000E+00  1.07193E+03  0.000E+00  1.200E+01  7.800E-02  1.000E+00
   1    5    6     2     2    0.0000E+00  0.0000E+00   0.0000E+00  0.000E+00  0.000E+00  0.000E+00  1.06651E+03  0.000E+00  1.200E+01  6.000E-02  1.000E+00
   1    6    6     2     3    0.0000E+00  0.0000E+00   0.0000E+00  0.000E+00  0.000E+00  0.000E+00  1.06179E+03  0.000E+00  1.200E+01  6.000E-02  1.000E+00
   1    7    6     2     4    0.0000E+00  0.0000E+00   0.0000E+00  0.000E+00  0.000E+00  0.000E+00  1.05708E+03  0.000E+00  1.200E+01  6.000E-02  1.000E+00
   1    8    6     2     5    0.0000E+00  0.0000E+00   0.0000E+00  0.000E+00  0.000E+00  0.000E+00  1.05236E+03  0.000E+00  1.200E+01  6.000E-02  1.000E+00
   1    3    5     3     1    1.5488E+00  2.8252E-01   1.2663E+00  0.000E+00  0.000E+00  0.000E+00  1.07555E+03  1.909E+00  9.636E+00  7.227E-02  1.955E+00
   1    3    6     3     2    1.2663E+00  2.4905E-01   1.0172E+00  0.000E+00  0.000E+00  0.000E+00  1.07264E+03  1.727E+00  8.909E+00  6.682E-02  1.864E+00
   1    3    7     3     3    1.0172E+00  1.9718E-01   8.2007E-01  0.000E+00  0.000E+00  0.000E+00  1.06987E+03  1.555E+00  8.218E+00  5.547E-02  1.777E+00
   1    4    8     3     4    8.2007E-01  2.2567E-01   5.9440E-01  0.000E+00  0.000E+00  0.000E+00  1.06682E+03  1.364E+00  7.455E+00  6.709E-02  1.682E+00
   1    5    8     3     5    5.9440E-01  1.5790E-01   4.3650E-01  0.000E+00  0.000E+00  0.000E+00  1.06362E+03  1.164E+00  6.655E+00  4.991E-02  1.582E+00
   1    6    8     3     6    4.3650E-01  5.5980E-02   3.8052E-01  0.000E+00  0.000E+00  0.000E+00  1.06158E+03  1.036E+00  6.145E+00  1.844E-02  1.518E+00
   1    5   10     4     1    1.0000E+01  9.0919E-02   9.9091E+00  0.000E+00  0.000E+00  0.000E+00  1.07836E+03  6.368E-01  1.000E+01  2.500E-02  1.212E+00
   1    5    9     4     2    9.9091E+00  1.8158E-01   9.7275E+00  0.000E+00  0.000E+00  0.000E+00  1.07154E+03  6.315E-01  1.000E+01  5.000E-02  1.211E+00
   1    6    8     4     3    9.7275E+00  1.2689E-01   9.6006E+00  0.000E+00  0.000E+00  0.000E+00  1.06381E+03  6.256E-01  1.000E+01  3.500E-02  1.209E+00
   1    6    8     5     1    9.9811E+00  2.2027E-01   9.7609E+00  0.000E+00  0.000E+00  0.000E+00  1.05867E+03  6.686E-01  1.501E+01  6.004E-02  1.223E+00
   1    7    7     5     2    9.7609E+00  2.7078E-01   9.4901E+00  0.000E+00  0.000E+00  0.000E+00  1.05416E+03  6.627E-01  1.479E+01  7.393E-02  1.221E+00
   1    8    7     5     3    9.4901E+00  1.8654E-01   9.3035E+00  0.000E+00  0.000E+00  0.000E+00  1.04991E+03  6.571E-01  1.457E+01  5.101E-02  1.219E+00
   1    8    6     5     4    9.3035E+00  1.3175E-01   9.1718E+00  0.000E+00  0.000E+00  0.000E+00  1.04690E+03  6.532E-01  1.443E+01  3.606E-02  1.218E+00
   1    9    6     6     1    9.1718E+00  2.1985E-01   8.9519E+00  0.000E+00  0.000E+00  0.000E+00  1.04339E+03  6.642E-01  1.200E+01  6.000E-02  1.221E+00
   1   10    7     6     2    8.9519E+00  2.1927E-01   8.7327E+00  0.000E+00  0.000E+00  0.000E+00  1.03884E+03  6.545E-01  1.200E+01  6.000E-02  1.218E+00
   1   11    7     6     3    8.7327E+00  2.1868E-01   8.5140E+00  0.000E+00  0.000E+00  0.000E+00  1.03428E+03  6.447E-01  1.200E+01  6.000E-02  1.215E+00
   1   12    7     6     4    8.5140E+00  2.1809E-01   8.2959E+00  0.000E+00  0.000E+00  0.000E+00  1.02973E+03  6.349E-01  1.200E+01  6.000E-02  1.212E+00
   1   13    7     6     5    8.2959E+00 -6.5708E-02   8.3616E+00  0.000E+00  0.000E+00  0.000E+00  1.02654E+03  6.314E-01  1.200E+01  2.400E-01 -9.126E-02
   1   14    9     7     1    1.5000E+02  1.3651E+00   1.4863E+02  0.000E+00  0.000E+00  0.000E+00  1.03987E+03  2.288E+00  5.529E+01  5.593E-01  8.136E-01
   1   13    8     7     2    1.4863E+02  1.9205E+00   1.4671E+02  0.000E+00  0.000E+00  0.000E+00  1.03478E+03  2.279E+00  5.526E+01  6.148E-01  1.041E+00
   1   13    7     7     3    1.4671E+02  1.6052E+00   1.4511E+02  0.000E+00  0.000E+00  0.000E+00  1.02969E+03  2.269E+00  5.521E+01  5.584E-01  9.582E-01
   1   13    6     8     1    1.5347E+02  9.5026E-01   1.5252E+02  0.000E+00  0.000E+00  0.000E+00  1.02471E+03  2.838E+00  4.115E+01  4.193E-01  7.554E-01
   1   13    5     8     2    1.5252E+02  2.1144E-01   1.5231E+02  0.000E+00  0.000E+00  0.000E+00  1.01846E+03  2.834E+00  4.109E+01  4.187E-01  1.683E-01
   1   13    4     8     3    1.5231E+02 -2.3074E+00   1.5462E+02  0.000E+00  0.000E+00  0.000E+00  1.01222E+03  2.841E+00  4.120E+01  4.198E+00 -1.832E-01
   1   13    3     8     4    1.5462E+02 -3.5750E+00   1.5819E+02  0.000E+00  0.000E+00  0.000E+00  1.00599E+03  2.861E+00  4.149E+01  4.228E+00 -2.819E-01
   1   13    2     8     5    1.5819E+02 -2.5597E+00   1.6075E+02  0.000E+00  0.000E+00  0.000E+00  9.99757E+02  2.882E+00  4.179E+01  4.259E+00 -2.003E-01
   1   13    1     8     6    1.6075E+02 -1.9726E+00   1.6272E+02  0.000E+00  0.000E+00  0.000E+00  9.94773E+02  2.898E+00  4.201E+01  2.569E+00 -2.560E-01
   1    8    6     9     1    0.0000E+00  0.0000E+00   0.0000E+00  0.000E+00  0.000E+00  0.000E+00  1.07875E+03  0.000E+00  4.000E+00  0.000E+00  1.000E+00
   1    8    5     9     2    0.0000E+00  0.0000E+00   0.0000E+00  0.000E+00  0.000E+00  0.000E+00  1.07825E+03  0.000E+00  4.000E+00  0.000E+00  1.000E+00



 UBDSV3 SAVING "           GW ET" ON UNIT  61 AT TIME STEP 1, STRESS PERIOD 1
 UBDSV3 SAVING "    UZF RECHARGE" ON UNIT  61 AT TIME STEP 1, STRESS PERIOD 1
 UBDSV3 SAVING " SURFACE LEAKAGE" ON UNIT  61 AT TIME STEP 1, STRESS PERIOD 1
 UBDSV3 SAVING "       HORT+DUNN" ON UNIT  61 AT TIME STEP 1, STRESS PERIOD 1
 UBDSV3 SAVING "  STORAGE CHANGE" ON UNIT  61 AT TIME STEP 1, STRESS PERIOD 1


UNSATURATED ZONE PACKAGE VOLUMETRIC BUDGET FOR  TIME STEP     1 STRESS PERIOD    1
  ------------------------------------------------------------------------------



     CUMULATIVE VOLUMES      L**3       RATES FOR THIS TIME STEP      L**3/T
     ------------------                 ------------------------

           IN:                                      IN:
           ---                                      ---
        INFILTRATION =       73224.0000          INFILTRATION =           0.8475

          OUT:                                     OUT:
          ----                                     ----
              UZF ET =       0.0000E+00                UZF ET =       0.0000E+00
        UZF RECHARGE =       73224.0000          UZF RECHARGE =           0.8475

            IN - OUT =       0.0000E+00              IN - OUT =       0.0000E+00

          STORAGE:                                 STORAGE:
          --------                                 --------
      STORAGE CHANGE =       0.0000E+00        STORAGE CHANGE =       0.0000E+00

 PERCENT DISCREPANCY IS DIFFERENCE BETWEEN IN-OUT MINUS CHANGE IN STORAGE
 DIVIDED BY THE AVERAGE OF IN AND OUT TIMES 100

 PERCENT DISCREPANCY =           0.00     PERCENT DISCREPANCY =           0.00






 

            AG WELLS      PERIOD    1   STEP   1
 AG WELL      1   LAYER   1   ROW     6   COL     4   RATE     0.00000    
 AG WELL      2   LAYER   1   ROW     6   COL     5   RATE     0.00000    
 AG WELL      3   LAYER   1   ROW     7   COL     4   RATE     0.00000    
 AG WELL      4   LAYER   1   ROW     7   COL     5   RATE     0.00000    
 AG WELL      5   LAYER   1   ROW     8   COL     4   RATE     0.00000    
 AG WELL      6   LAYER   1   ROW     8   COL     5   RATE     0.00000    
 
 

   DIVERSION SEGMENTS     PERIOD    1   STEP   1
 
 

        SW IRRIGATION     PERIOD    1   STEP   1
 
 

        GW IRRIGATION     PERIOD    1   STEP   1
 
1
  VOLUMETRIC BUDGET FOR AGRICULTURAL FIELDS AT  END OF TIME STEP    1, STRESS PERIOD   1
  ------------------------------------------------------------------------------

     CUMULATIVE VOLUMES      L**3       RATES FOR THIS TIME STEP      L**3/T
     ------------------                 ------------------------

           IN:                                      IN:
           ---                                      ---
               AG WELLS  =           0.0000                 AG WELLS  =           0.0000
      DIVERSION SEGMENTS =           0.0000        DIVERSION SEGMENTS =           0.0000
       IRRIGATION PONDS  =           0.0000         IRRIGATION PONDS  =           0.0000
           GW IRRIGATION =           0.0000             GW IRRIGATION =           0.0000
           SW IRRIGATION =           0.0000             SW IRRIGATION =           0.0000
        SYSTEM LOSSES GW =           0.0000          SYSTEM LOSSES GW =           0.0000
        SYSTEM LOSSES SW =           0.0000          SYSTEM LOSSES SW =           0.0000

                TOTAL IN =           0.0000                  TOTAL IN =           0.0000

          OUT:                                     OUT:
          ----                                     ----
               AG WELLS  =           0.0000                 AG WELLS  =           0.0000
      DIVERSION SEGMENTS =           0.0000        DIVERSION SEGMENTS =           0.0000
       IRRIGATION PONDS  =           0.0000         IRRIGATION PONDS  =           0.0000
           GW IRRIGATION =           0.0000             GW IRRIGATION =           0.0000
           SW IRRIGATION =           0.0000             SW IRRIGATION =           0.0000
        SYSTEM LOSSES GW =           0.0000          SYSTEM LOSSES GW =           0.0000
        SYSTEM LOSSES SW =           0.0000          SYSTEM LOSSES SW =           0.0000

               TOTAL OUT =           0.0000                 TOTAL OUT =           0.0000

                IN - OUT =           0.0000                  IN - OUT =           0.0000

     PERCENT DISCREPANCY =           0.00         PERCENT DISCREPANCY =           0.00



1
              HEAD IN LAYER 1 AT END OF TIME STEP 1 IN STRESS PERIOD 1
  ---------------------------------------------------------------------------

           1       2       3       4       5       6       7       8       9      10
 ...................................................................................
   1  1029.26 1028.37 6999.00 6999.00 6999.00 6999.00 6999.00 6999.00 6999.00 6999.00
   2  1028.45 1027.36 1026.88 6999.00 6999.00 1028.30 1028.48 1028.46 6999.00 6999.00
   3  6999.00 1026.66 1026.39 1026.21 1026.77 1027.48 1028.04 1028.04 6999.00 6999.00
   4  1026.25 1026.11 1025.89 1025.72 1025.72 1025.86 1026.44 1027.58 1027.34 6999.00
   5  1025.90 1025.50 1025.30 1025.20 1025.26 1025.43 1025.71 1026.26 1026.91 1027.46
   6  1025.46 1024.92 1024.71 1024.66 1024.75 1024.99 1025.37 1025.92 1026.38 1027.29
   7  1025.06 1024.16 1023.99 1024.01 1024.15 1024.46 1024.94 1025.38 1025.92 6999.00
   8  6999.00 1023.02 1023.05 1023.19 1023.40 1023.81 1024.28 1024.92 1025.60 6999.00
   9  6999.00 1021.31 1021.62 1022.06 1022.44 1023.05 1023.57 1024.31 1025.54 6999.00
  10  6999.00 1018.82 1019.57 1020.57 1021.33 1022.32 1023.23 1024.33 1025.99 1026.64
  11  6999.00 1014.68 1016.10 1018.53 1020.11 1021.81 1023.34 1025.18 1027.44 6999.00
  12  1001.77 1007.67 1011.76 1015.60 1018.78 1021.71 1024.22 1027.74 1030.81 6999.00
  13   995.54 1000.36 1006.83 1012.77 1017.95 1022.45 1026.81 1031.65 1034.50 6999.00
  14  6999.00 1005.73 1008.80 1013.40 1018.06 1022.43 1027.39 1032.95 1037.43 6999.00
  15  6999.00 6999.00 1012.40 1015.08 1018.50 1021.48 6999.00 6999.00 6999.00 6999.00

 HEAD WILL BE SAVED ON UNIT   62 AT END OF TIME STEP    1, STRESS PERIOD    1
1
  VOLUMETRIC BUDGET FOR ENTIRE MODEL AT END OF TIME STEP    1, STRESS PERIOD   1
  ------------------------------------------------------------------------------

     CUMULATIVE VOLUMES      L**3       RATES FOR THIS TIME STEP      L**3/T
     ------------------                 ------------------------

           IN:                                      IN:
           ---                                      ---
             STORAGE     =           0.0000               STORAGE     =           0.0000
       CONSTANT HEAD     =           0.0000         CONSTANT HEAD     =           0.0000
     HEAD DEP BOUNDS     =       24862.0605       HEAD DEP BOUNDS     =           0.2878
      STREAM LEAKAGE     =      832172.8125        STREAM LEAKAGE     =           9.6316
        UZF RECHARGE     =       73223.9531          UZF RECHARGE     =           0.8475
               GW ET     =           0.0000                 GW ET     =           0.0000
     SURFACE LEAKAGE     =           0.0000       SURFACE LEAKAGE     =           0.0000
           AG WELLS      =           0.0000             AG WELLS      =           0.0000

                TOTAL IN =      930258.8125                  TOTAL IN =          10.7669

          OUT:                                     OUT:
          ----                                     ----
             STORAGE     =           0.0000               STORAGE     =           0.0000
       CONSTANT HEAD     =           0.0000         CONSTANT HEAD     =           0.0000
     HEAD DEP BOUNDS     =       24756.7500       HEAD DEP BOUNDS     =           0.2865
      STREAM LEAKAGE     =      905501.8750        STREAM LEAKAGE     =          10.4803
        UZF RECHARGE     =           0.0000          UZF RECHARGE     =           0.0000
               GW ET     =           0.0000                 GW ET     =           0.0000
     SURFACE LEAKAGE     =           0.0000       SURFACE LEAKAGE     =           0.0000
           AG WELLS      =           0.0000             AG WELLS      =           0.0000

               TOTAL OUT =      930258.6250                 TOTAL OUT =          10.7669

                IN - OUT =           0.1875                  IN - OUT =       2.8610E-06

     PERCENT DISCREPANCY =           0.00         PERCENT DISCREPANCY =           0.00






         TIME SUMMARY AT END OF TIME STEP    1 IN STRESS PERIOD    1
                    SECONDS     MINUTES      HOURS       DAYS        YEARS
                    -----------------------------------------------------------
   TIME STEP LENGTH  86400.      1440.0      24.000      1.0000     2.73785E-03
 STRESS PERIOD TIME  86400.      1440.0      24.000      1.0000     2.73785E-03
         TOTAL TIME  86400.      1440.0      24.000      1.0000     2.73785E-03
1
1
                            STRESS PERIOD NO.    2, LENGTH =   2630000.    
                            -----------------------------------------------

                              NUMBER OF TIME STEPS =    30

                               MULTIPLIER FOR DELT =     1.000

                            INITIAL TIME STEP SIZE =   87666.66    

 REUSING NON-PARAMETER GHB CELLS FROM LAST STRESS PERIOD

      2 GHB CELLS

 REUSING STREAM SEGMENT DATA FROM LAST STRESS PERIOD



            AREAL INFILTRATION RATE
 READING ON UNIT   19 WITH FORMAT: (FREE)              

            1           2           3           4           5           6           7           8           9          10
 ........................................................................................................................
   1   1.0000E-10  2.0000E-10   0.000       0.000       0.000       0.000       0.000       0.000       0.000       0.000    
   2   2.0000E-10  1.0000E-10  2.0000E-10   0.000       0.000      8.0000E-10  8.0000E-10  5.0000E-10   0.000       0.000    
   3    0.000      5.0000E-10  1.0000E-10  1.0000E-10  8.0000E-10  8.0000E-10  5.0000E-10  5.0000E-10   0.000       0.000    
   4   8.0000E-10  5.0000E-10  1.0000E-10  1.0000E-10  1.0000E-10  1.0000E-10  1.0000E-10  1.0000E-10  2.0000E-10   0.000    
   5   8.0000E-10  5.0000E-10  1.0000E-10  1.0000E-10  1.0000E-10  1.0000E-10  1.0000E-10  1.0000E-10  1.0000E-10  1.0000E-10
   6   8.0000E-10  5.0000E-10  5.0000E-10  2.0000E-10  2.0000E-10  1.0000E-10  1.0000E-10  1.0000E-10  1.0000E-10  5.0000E-10
   7   8.0000E-10  5.0000E-10  5.0000E-10  2.0000E-10  2.0000E-10  1.0000E-10  1.0000E-10  2.0000E-10  2.0000E-10   0.000    
   8    0.000      5.0000E-10  5.0000E-10  2.0000E-10  2.0000E-10  1.0000E-10  1.0000E-10  2.0000E-10  5.0000E-10   0.000    
   9    0.000      5.0000E-10  5.0000E-10  2.0000E-10  2.0000E-10  1.0000E-10  1.0000E-10  2.0000E-10  5.0000E-10   0.000    
  10    0.000      5.0000E-10  5.0000E-10  2.0000E-10  2.0000E-10  1.0000E-10  1.0000E-10  2.0000E-10  5.0000E-10  8.0000E-10
  11    0.000      1.0000E-10  1.0000E-10  1.0000E-10  1.0000E-10  1.0000E-10  1.0000E-10  2.0000E-10  5.0000E-10   0.000    
  12   1.0000E-10  1.0000E-10  1.0000E-10  1.0000E-10  1.0000E-10  1.0000E-10  1.0000E-10  1.0000E-10  2.0000E-10   0.000    
  13   1.0000E-10  1.0000E-10  2.0000E-10  2.0000E-10  2.0000E-10  2.0000E-10  2.0000E-10  1.0000E-10  1.0000E-10   0.000    
  14    0.000      2.0000E-10  5.0000E-10  5.0000E-10  5.0000E-10  5.0000E-10  5.0000E-10  2.0000E-10  1.0000E-10   0.000    
  15    0.000       0.000      8.0000E-10  8.0000E-10  8.0000E-10  8.0000E-10   0.000       0.000       0.000       0.000    

                  ET RATE =  5.000000E-10

 USING ET EXTINCTION DEPTH FROM PREVIOUS STRESS PERIOD. CURRENT PERIOD IS:       2

 USING EXTINCTION WATER CONTENT FROM PREVIOUS STRESS PERIOD. CURRENT PERIOD IS:       2

 USING AIR ENTRY PRESSURE FROM PREVIOUS STRESS PERIOD. CURRENT PERIOD IS:       2

 USING ROOT PRESSURE HEAD FROM PREVIOUS STRESS PERIOD. CURRENT PERIOD IS:       2

 USING ROOT ACTIVITY FROM PREVIOUS STRESS PERIOD. CURRENT PERIOD IS:       2

 PROCESSING AG STRESS PERIOD DATA

 READING AG STRESS PERIOD DATA

 READING IRRIGATION SEGMENT

 READING IRRIGATION WELL

 READING SUPPLEMENTAL WELL

 NO IRRPOND OR REUSING IRRPOND DATA FROM LAST STRESS PERIOD

 END PROCESSING AG STRESS PERIOD DATA OPTIONS
 
 SOLVING FOR HEAD 
                                                   Max.-Head-Change                         Max.-Flux-Residual
  Residual-Control   Outer-Iter.   Inner-Iter.     Column Row Layer    Maximum-Head-Change  Column Row Layer    Maximum-Flux-Residual          L2-NORM 
          0                 1           2             5    4     1       0.4971666878E-02       5    4    1         0.2692751490E+00      0.5607047489E+00
          0                 2           2             5    4     1      -0.4836091039E-03       5    4    1        -0.2692761807E-01      0.5590423108E-01
          0                 3           1             5    4     1       0.3293196819E-04       5    4    1         0.1884933108E-02      0.3898620859E-02

    ------------------------------------------------
       NWT REQUIRED            3 OUTER ITERATIONS 
       AND A TOTAL OF          5 INNER ITERATIONS.
    ------------------------------------------------

 OUTPUT CONTROL FOR STRESS PERIOD    2   TIME STEP    1
    PRINT BUDGET
    PRINT HEAD FOR ALL LAYERS
    SAVE BUDGET
 UBDSV1 SAVING "         STORAGE" ON UNIT 102 AT TIME STEP 1, STRESS PERIOD 2
 UBDSV2 SAVING "   CONSTANT HEAD" ON UNIT 102 AT TIME STEP 1, STRESS PERIOD 2
 UBDSV1 SAVING "FLOW RIGHT FACE " ON UNIT 102 AT TIME STEP 1, STRESS PERIOD 2
 UBDSV1 SAVING "FLOW FRONT FACE " ON UNIT 102 AT TIME STEP 1, STRESS PERIOD 2

  HEAD DEP BOUNDS   PERIOD    2   STEP     1
 BOUNDARY      1   LAYER   1   ROW    13   COL     1   RATE   -0.286571    
 BOUNDARY      2   LAYER   1   ROW    14   COL     9   RATE    0.287757    



 STREAM LISTING     PERIOD      2   STEP        1

 LAYER ROW COL. STREAM  RCH.  FLOW INTO     FLOW TO   FLOW OUT OF   OVRLND.     DIRECT     STREAM       STREAM     STREAM     STREAM   STREAMBED  STREAMBED
                SEG.NO.  NO.  STRM. RCH.    AQUIFER    STRM. RCH.    RUNOFF     PRECIP       ET          HEAD       DEPTH      WIDTH   CONDCTNC.   GRADIENT

   1    1    1     1     1    8.2500E+00  1.3178E-01   8.1182E+00  0.000E+00  0.000E+00  0.000E+00  1.09389E+03  8.424E-01  7.622E+00  3.430E-02  1.281E+00
   1    2    2     1     2    8.1182E+00  2.0240E-01   7.9158E+00  0.000E+00  0.000E+00  0.000E+00  1.08890E+03  8.367E-01  7.536E+00  5.276E-02  1.279E+00
   1    3    3     1     3    7.9158E+00  1.7099E-01   7.7448E+00  0.000E+00  0.000E+00  0.000E+00  1.08325E+03  8.302E-01  7.440E+00  4.464E-02  1.277E+00
   1    3    4     1     4    7.7448E+00  1.5612E-01   7.5887E+00  0.000E+00  0.000E+00  0.000E+00  1.07823E+03  8.244E-01  7.355E+00  4.082E-02  1.275E+00
   1    4    5     2     1    5.5887E+00  2.7178E-01   5.3169E+00  0.000E+00  0.000E+00  0.000E+00  1.07242E+03  4.843E-01  1.200E+01  7.800E-02  1.161E+00
   1    5    6     2     2    5.3169E+00  2.0828E-01   5.1086E+00  0.000E+00  0.000E+00  0.000E+00  1.06698E+03  4.714E-01  1.200E+01  6.000E-02  1.157E+00
   1    6    6     2     3    5.1086E+00  2.0760E-01   4.9010E+00  0.000E+00  0.000E+00  0.000E+00  1.06225E+03  4.600E-01  1.200E+01  6.000E-02  1.153E+00
   1    7    6     2     4    4.9010E+00  2.0691E-01   4.6941E+00  0.000E+00  0.000E+00  0.000E+00  1.05752E+03  4.485E-01  1.200E+01  6.000E-02  1.149E+00
   1    8    6     2     5    4.6941E+00  2.0621E-01   4.4879E+00  0.000E+00  0.000E+00  0.000E+00  1.05280E+03  4.368E-01  1.200E+01  6.000E-02  1.146E+00
   1    3    5     3     1    2.0000E+00  2.8252E-01   1.7175E+00  0.000E+00  0.000E+00  0.000E+00  1.07555E+03  1.909E+00  9.636E+00  7.227E-02  1.955E+00
   1    3    6     3     2    1.7175E+00  2.4905E-01   1.4684E+00  0.000E+00  0.000E+00  0.000E+00  1.07264E+03  1.727E+00  8.909E+00  6.682E-02  1.864E+00
   1    3    7     3     3    1.4684E+00  1.9718E-01   1.2712E+00  0.000E+00  0.000E+00  0.000E+00  1.06987E+03  1.555E+00  8.218E+00  5.547E-02  1.777E+00
   1    4    8     3     4    1.2712E+00  2.2567E-01   1.0456E+00  0.000E+00  0.000E+00  0.000E+00  1.06682E+03  1.364E+00  7.455E+00  6.709E-02  1.682E+00
   1    5    8     3     5    1.0456E+00  1.5790E-01   8.8768E-01  0.000E+00  0.000E+00  0.000E+00  1.06362E+03  1.164E+00  6.655E+00  4.991E-02  1.582E+00
   1    6    8     3     6    8.8768E-01  5.5980E-02   8.3170E-01  0.000E+00  0.000E+00  0.000E+00  1.06158E+03  1.036E+00  6.145E+00  1.844E-02  1.518E+00
   1    5   10     4     1    1.0000E+01  9.0919E-02   9.9091E+00  0.000E+00  0.000E+00  0.000E+00  1.07836E+03  6.368E-01  1.000E+01  2.500E-02  1.212E+00
   1    5    9     4     2    9.9091E+00  1.8158E-01   9.7275E+00  0.000E+00  0.000E+00  0.000E+00  1.07154E+03  6.315E-01  1.000E+01  5.000E-02  1.211E+00
   1    6    8     4     3    9.7275E+00  1.2689E-01   9.6006E+00  0.000E+00  0.000E+00  0.000E+00  1.06381E+03  6.256E-01  1.000E+01  3.500E-02  1.209E+00
   1    6    8     5     1    1.0432E+01  2.2686E-01   1.0205E+01  0.000E+00  0.000E+00  0.000E+00  1.05868E+03  6.790E-01  1.542E+01  6.166E-02  1.226E+00
   1    7    7     5     2    1.0205E+01  2.7894E-01   9.9265E+00  0.000E+00  0.000E+00  0.000E+00  1.05417E+03  6.732E-01  1.519E+01  7.594E-02  1.224E+00
   1    8    7     5     3    9.9265E+00  1.9221E-01   9.7343E+00  0.000E+00  0.000E+00  0.000E+00  1.04992E+03  6.676E-01  1.497E+01  5.241E-02  1.223E+00
   1    8    6     5     4    9.7343E+00  1.3577E-01   9.5985E+00  0.000E+00  0.000E+00  0.000E+00  1.04691E+03  6.637E-01  1.482E+01  3.706E-02  1.221E+00
   1    9    6     6     1    1.4086E+01  2.3167E-01   1.3855E+01  0.000E+00  0.000E+00  0.000E+00  1.04359E+03  8.612E-01  1.200E+01  6.000E-02  1.287E+00
   1   10    7     6     2    1.3855E+01  2.3116E-01   1.3624E+01  0.000E+00  0.000E+00  0.000E+00  1.03903E+03  8.526E-01  1.200E+01  6.000E-02  1.284E+00
   1   11    7     6     3    1.3624E+01  2.3064E-01   1.3393E+01  0.000E+00  0.000E+00  0.000E+00  1.03448E+03  8.440E-01  1.200E+01  6.000E-02  1.281E+00
   1   12    7     6     4    1.3393E+01  2.3012E-01   1.3163E+01  0.000E+00  0.000E+00  0.000E+00  1.02993E+03  8.353E-01  1.200E+01  6.000E-02  1.278E+00
   1   13    7     6     5    1.3163E+01 -1.7911E-02   1.3181E+01  0.000E+00  0.000E+00  0.000E+00  1.02674E+03  8.313E-01  1.200E+01  2.400E-01 -2.488E-02
   1   14    9     7     1    1.5000E+02  1.3652E+00   1.4863E+02  0.000E+00  0.000E+00  0.000E+00  1.03987E+03  2.288E+00  5.529E+01  5.593E-01  8.136E-01
   1   13    8     7     2    1.4863E+02  1.9205E+00   1.4671E+02  0.000E+00  0.000E+00  0.000E+00  1.03478E+03  2.279E+00  5.526E+01  6.148E-01  1.041E+00
   1   13    7     7     3    1.4671E+02  1.6048E+00   1.4511E+02  0.000E+00  0.000E+00  0.000E+00  1.02969E+03  2.269E+00  5.521E+01  5.584E-01  9.579E-01
   1   13    6     8     1    1.5829E+02  9.7525E-01   1.5732E+02  0.000E+00  0.000E+00  0.000E+00  1.02475E+03  2.871E+00  4.163E+01  4.242E-01  7.663E-01
   1   13    5     8     2    1.5732E+02  2.2782E-01   1.5709E+02  0.000E+00  0.000E+00  0.000E+00  1.01849E+03  2.867E+00  4.157E+01  4.236E-01  1.793E-01
   1   13    4     8     3    1.5709E+02 -2.2030E+00   1.5929E+02  0.000E+00  0.000E+00  0.000E+00  1.01225E+03  2.874E+00  4.167E+01  4.246E+00 -1.729E-01
   1   13    3     8     4    1.5929E+02 -3.4860E+00   1.6278E+02  0.000E+00  0.000E+00  0.000E+00  1.00602E+03  2.893E+00  4.195E+01  4.274E+00 -2.718E-01
   1   13    2     8     5    1.6278E+02 -2.4627E+00   1.6524E+02  0.000E+00  0.000E+00  0.000E+00  9.99788E+02  2.913E+00  4.223E+01  4.304E+00 -1.907E-01
   1   13    1     8     6    1.6524E+02 -1.9181E+00   1.6716E+02  0.000E+00  0.000E+00  0.000E+00  9.94802E+02  2.927E+00  4.245E+01  2.595E+00 -2.464E-01
   1    8    6     9     1    0.0000E+00  0.0000E+00   0.0000E+00  0.000E+00  0.000E+00  0.000E+00  1.07875E+03  0.000E+00  4.000E+00  0.000E+00  1.000E+00
   1    8    5     9     2    0.0000E+00  0.0000E+00   0.0000E+00  0.000E+00  0.000E+00  0.000E+00  1.07825E+03  0.000E+00  4.000E+00  0.000E+00  1.000E+00



 UBDSV3 SAVING "           GW ET" ON UNIT  61 AT TIME STEP 1, STRESS PERIOD 2
 UBDSV3 SAVING "    UZF RECHARGE" ON UNIT  61 AT TIME STEP 1, STRESS PERIOD 2
 UBDSV3 SAVING " SURFACE LEAKAGE" ON UNIT  61 AT TIME STEP 1, STRESS PERIOD 2
 UBDSV3 SAVING "       HORT+DUNN" ON UNIT  61 AT TIME STEP 1, STRESS PERIOD 2
 UBDSV3 SAVING "  STORAGE CHANGE" ON UNIT  61 AT TIME STEP 1, STRESS PERIOD 2


UNSATURATED ZONE PACKAGE VOLUMETRIC BUDGET FOR  TIME STEP     1 STRESS PERIOD    2
  ------------------------------------------------------------------------------



     CUMULATIVE VOLUMES      L**3       RATES FOR THIS TIME STEP      L**3/T
     ------------------                 ------------------------

           IN:                                      IN:
           ---                                      ---
        INFILTRATION =      147521.4958          INFILTRATION =           0.8475

          OUT:                                     OUT:
          ----                                     ----
              UZF ET =       65735.6246                UZF ET =           0.7498
        UZF RECHARGE =       73224.0000          UZF RECHARGE =       0.0000E+00

            IN - OUT =        8561.8711              IN - OUT =       9.7664E-02

          STORAGE:                                 STORAGE:
          --------                                 --------
      STORAGE CHANGE =        8561.8722        STORAGE CHANGE =       9.7664E-02

 PERCENT DISCREPANCY IS DIFFERENCE BETWEEN IN-OUT MINUS CHANGE IN STORAGE
 DIVIDED BY THE AVERAGE OF IN AND OUT TIMES 100

 PERCENT DISCREPANCY =           0.00     PERCENT DISCREPANCY =           0.00






 

            AG WELLS      PERIOD    2   STEP   1
 AG WELL      1   LAYER   1   ROW     6   COL     4   RATE     0.00000    
 AG WELL      2   LAYER   1   ROW     6   COL     5   RATE     0.00000    
 AG WELL      3   LAYER   1   ROW     7   COL     4   RATE     0.00000    
 AG WELL      4   LAYER   1   ROW     7   COL     5   RATE     0.00000    
 AG WELL      5   LAYER   1   ROW     8   COL     4   RATE     0.00000    
 AG WELL      6   LAYER   1   ROW     8   COL     5   RATE     0.00000    
 
 

   DIVERSION SEGMENTS     PERIOD    2   STEP   1
 
 

        SW IRRIGATION     PERIOD    2   STEP   1
 
 

        GW IRRIGATION     PERIOD    2   STEP   1
 
1
  VOLUMETRIC BUDGET FOR AGRICULTURAL FIELDS AT  END OF TIME STEP    1, STRESS PERIOD   2
  ------------------------------------------------------------------------------

     CUMULATIVE VOLUMES      L**3       RATES FOR THIS TIME STEP      L**3/T
     ------------------                 ------------------------

           IN:                                      IN:
           ---                                      ---
               AG WELLS  =           0.0000                 AG WELLS  =           0.0000
      DIVERSION SEGMENTS =           0.0000        DIVERSION SEGMENTS =           0.0000
       IRRIGATION PONDS  =           0.0000         IRRIGATION PONDS  =           0.0000
           GW IRRIGATION =           0.0000             GW IRRIGATION =           0.0000
           SW IRRIGATION =           0.0000             SW IRRIGATION =           0.0000
        SYSTEM LOSSES GW =           0.0000          SYSTEM LOSSES GW =           0.0000
        SYSTEM LOSSES SW =           0.0000          SYSTEM LOSSES SW =           0.0000

                TOTAL IN =           0.0000                  TOTAL IN =           0.0000

          OUT:                                     OUT:
          ----                                     ----
               AG WELLS  =           0.0000                 AG WELLS  =           0.0000
      DIVERSION SEGMENTS =           0.0000        DIVERSION SEGMENTS =           0.0000
       IRRIGATION PONDS  =           0.0000         IRRIGATION PONDS  =           0.0000
           GW IRRIGATION =           0.0000             GW IRRIGATION =           0.0000
           SW IRRIGATION =           0.0000             SW IRRIGATION =           0.0000
        SYSTEM LOSSES GW =           0.0000          SYSTEM LOSSES GW =           0.0000
        SYSTEM LOSSES SW =           0.0000          SYSTEM LOSSES SW =           0.0000

               TOTAL OUT =           0.0000                 TOTAL OUT =           0.0000

                IN - OUT =           0.0000                  IN - OUT =           0.0000

     PERCENT DISCREPANCY =           0.00         PERCENT DISCREPANCY =           0.00



1
              HEAD IN LAYER 1 AT END OF TIME STEP 1 IN STRESS PERIOD 2
  ---------------------------------------------------------------------------

           1       2       3       4       5       6       7       8       9      10
 ...................................................................................
   1  1029.26 1028.36 6999.00 6999.00 6999.00 6999.00 6999.00 6999.00 6999.00 6999.00
   2  1028.45 1027.36 1026.88 6999.00 6999.00 1028.30 1028.48 1028.46 6999.00 6999.00
   3  6999.00 1026.66 1026.39 1026.21 1026.77 1027.48 1028.04 1028.04 6999.00 6999.00
   4  1026.25 1026.11 1025.89 1025.72 1025.72 1025.86 1026.44 1027.58 1027.34 6999.00
   5  1025.90 1025.50 1025.30 1025.20 1025.26 1025.43 1025.71 1026.26 1026.91 1027.46
   6  1025.46 1024.92 1024.71 1024.66 1024.75 1024.99 1025.37 1025.92 1026.38 1027.29
   7  1025.06 1024.16 1023.99 1024.01 1024.15 1024.46 1024.94 1025.38 1025.92 6999.00
   8  6999.00 1023.02 1023.05 1023.19 1023.40 1023.81 1024.28 1024.92 1025.60 6999.00
   9  6999.00 1021.31 1021.62 1022.06 1022.44 1023.05 1023.57 1024.31 1025.54 6999.00
  10  6999.00 1018.82 1019.57 1020.57 1021.33 1022.32 1023.23 1024.33 1025.99 1026.64
  11  6999.00 1014.68 1016.10 1018.53 1020.11 1021.81 1023.34 1025.18 1027.44 6999.00
  12  1001.77 1007.67 1011.76 1015.60 1018.78 1021.71 1024.22 1027.74 1030.81 6999.00
  13   995.54 1000.36 1006.83 1012.77 1017.95 1022.45 1026.81 1031.65 1034.50 6999.00
  14  6999.00 1005.73 1008.80 1013.40 1018.06 1022.43 1027.39 1032.95 1037.43 6999.00
  15  6999.00 6999.00 1012.40 1015.08 1018.50 1021.48 6999.00 6999.00 6999.00 6999.00
1
  VOLUMETRIC BUDGET FOR ENTIRE MODEL AT END OF TIME STEP    1, STRESS PERIOD   2
  ------------------------------------------------------------------------------

     CUMULATIVE VOLUMES      L**3       RATES FOR THIS TIME STEP      L**3/T
     ------------------                 ------------------------

           IN:                                      IN:
           ---                                      ---
             STORAGE     =       65430.3203               STORAGE     =           0.7464
       CONSTANT HEAD     =           0.0000         CONSTANT HEAD     =           0.0000
     HEAD DEP BOUNDS     =       50088.7578       HEAD DEP BOUNDS     =           0.2878
      STREAM LEAKAGE     =     1812343.5000        STREAM LEAKAGE     =          11.1807
        UZF RECHARGE     =       73223.9531          UZF RECHARGE     =           0.0000
               GW ET     =           0.0000                 GW ET     =           0.0000
     SURFACE LEAKAGE     =           0.0000       SURFACE LEAKAGE     =           0.0000
           AG WELLS      =           0.0000             AG WELLS      =           0.0000

                TOTAL IN =     2001086.6250                  TOTAL IN =          12.2148

          OUT:                                     OUT:
          ----                                     ----
             STORAGE     =      161381.9375               STORAGE     =           1.8409
       CONSTANT HEAD     =           0.0000         CONSTANT HEAD     =           0.0000
     HEAD DEP BOUNDS     =       49879.4922       HEAD DEP BOUNDS     =           0.2866
      STREAM LEAKAGE     =     1789852.0000        STREAM LEAKAGE     =          10.0876
        UZF RECHARGE     =           0.0000          UZF RECHARGE     =           0.0000
               GW ET     =           0.0000                 GW ET     =           0.0000
     SURFACE LEAKAGE     =           0.0000       SURFACE LEAKAGE     =           0.0000
           AG WELLS      =           0.0000             AG WELLS      =           0.0000

               TOTAL OUT =     2001113.5000                 TOTAL OUT =          12.2151

                IN - OUT =         -26.8750                  IN - OUT =      -3.0899E-04

     PERCENT DISCREPANCY =          -0.00         PERCENT DISCREPANCY =          -0.00






         TIME SUMMARY AT END OF TIME STEP    1 IN STRESS PERIOD    2
                    SECONDS     MINUTES      HOURS       DAYS        YEARS
                    -----------------------------------------------------------
   TIME STEP LENGTH  87667.      1461.1      24.352      1.0147     2.77799E-03
 STRESS PERIOD TIME  87667.      1461.1      24.352      1.0147     2.77799E-03
         TOTAL TIME 1.74067E+05  2901.1      48.352      2.0147     5.51584E-03
1
 
 SOLVING FOR HEAD 
                                                   Max.-Head-Change                         Max.-Flux-Residual
  Residual-Control   Outer-Iter.   Inner-Iter.     Column Row Layer    Maximum-Head-Change  Column Row Layer    Maximum-Flux-Residual          L2-NORM 
          0                 1           2             5    4     1       0.4771848866E-02       5    4    1         0.2582579971E+00      0.5403926138E+00
          0                 2           2             5    4     1      -0.4641721319E-03       5    4    1        -0.2582589402E-01      0.5389205072E-01
          0                 3           1             5    4     1       0.3160838333E-04       5    4    1         0.1807812460E-02      0.3758911888E-02

    ------------------------------------------------
       NWT REQUIRED            3 OUTER ITERATIONS 
       AND A TOTAL OF          5 INNER ITERATIONS.
    ------------------------------------------------

 NO OUTPUT CONTROL FOR STRESS PERIOD    2   TIME STEP    2
 
 SOLVING FOR HEAD 
                                                   Max.-Head-Change                         Max.-Flux-Residual
  Residual-Control   Outer-Iter.   Inner-Iter.     Column Row Layer    Maximum-Head-Change  Column Row Layer    Maximum-Flux-Residual          L2-NORM 
          0                 1           2             5    4     1       0.4583646614E-02       5    4    1         0.2478846946E+00      0.5216599243E+00
          0                 2           2             5    4     1      -0.4458650693E-03       5    4    1        -0.2478855577E-01      0.5203508354E-01
          0                 3           1             5    4     1       0.3036174166E-04       5    4    1         0.1735198828E-02      0.3630483295E-02

    ------------------------------------------------
       NWT REQUIRED            3 OUTER ITERATIONS 
       AND A TOTAL OF          5 INNER ITERATIONS.
    ------------------------------------------------

 NO OUTPUT CONTROL FOR STRESS PERIOD    2   TIME STEP    3
 
 SOLVING FOR HEAD 
                                                   Max.-Head-Change                         Max.-Flux-Residual
  Residual-Control   Outer-Iter.   Inner-Iter.     Column Row Layer    Maximum-Head-Change  Column Row Layer    Maximum-Flux-Residual          L2-NORM 
          0                 1           2             5    4     1       0.4406074969E-02       5    4    1         0.2381005685E+00      0.5043754330E+00
          0                 2           2             5    4     1      -0.4285920862E-03       5    4    1        -0.2381013595E-01      0.5032141526E-01
          0                 3           1             5    4     1       0.2918551645E-04       5    4    1         0.1666709469E-02      0.3511958027E-02

    ------------------------------------------------
       NWT REQUIRED            3 OUTER ITERATIONS 
       AND A TOTAL OF          5 INNER ITERATIONS.
    ------------------------------------------------

 NO OUTPUT CONTROL FOR STRESS PERIOD    2   TIME STEP    4
 
 SOLVING FOR HEAD 
                                                   Max.-Head-Change                         Max.-Flux-Residual
  Residual-Control   Outer-Iter.   Inner-Iter.     Column Row Layer    Maximum-Head-Change  Column Row Layer    Maximum-Flux-Residual          L2-NORM 
          0                 1           2             5    4     1       0.4238682244E-02       5    4    1         0.2288806993E+00      0.4884228697E+00
          0                 2           2             5    4     1      -0.4123092439E-03       5    4    1        -0.2288814246E-01      0.4873944241E-01
          0                 3           1             5    4     1       0.2807671661E-04       5    4    1         0.1602169973E-02      0.3402466816E-02

    ------------------------------------------------
       NWT REQUIRED            3 OUTER ITERATIONS 
       AND A TOTAL OF          5 INNER ITERATIONS.
    ------------------------------------------------

 NO OUTPUT CONTROL FOR STRESS PERIOD    2   TIME STEP    5
 
 SOLVING FOR HEAD 
                                                   Max.-Head-Change                         Max.-Flux-Residual
  Residual-Control   Outer-Iter.   Inner-Iter.     Column Row Layer    Maximum-Head-Change  Column Row Layer    Maximum-Flux-Residual          L2-NORM 
          0                 1           2             5    4     1       0.4080580036E-02       5    4    1         0.2201755166E+00      0.4736649229E+00
          0                 2           2             5    4     1      -0.3969301254E-03       5    4    1        -0.2201761830E-01      0.4727546707E-01
          0                 3           1             5    4     1       0.2702945702E-04       5    4    1         0.1541233318E-02      0.3300549705E-02

    ------------------------------------------------
       NWT REQUIRED            3 OUTER ITERATIONS 
       AND A TOTAL OF          5 INNER ITERATIONS.
    ------------------------------------------------

 NO OUTPUT CONTROL FOR STRESS PERIOD    2   TIME STEP    6
 
 SOLVING FOR HEAD 
                                                   Max.-Head-Change                         Max.-Flux-Residual
  Residual-Control   Outer-Iter.   Inner-Iter.     Column Row Layer    Maximum-Head-Change  Column Row Layer    Maximum-Flux-Residual          L2-NORM 
          0                 1           2             5    4     1       0.3931653136E-02       5    4    1         0.2119781742E+00      0.4600295403E+00
          0                 2           2             5    4     1      -0.3824435221E-03       5    4    1        -0.2119787871E-01      0.4592215656E-01
          0                 3           1             5    4     1       0.2604297419E-04       5    4    1         0.1483851583E-02      0.3207476688E-02

    ------------------------------------------------
       NWT REQUIRED            3 OUTER ITERATIONS 
       AND A TOTAL OF          5 INNER ITERATIONS.
    ------------------------------------------------

 NO OUTPUT CONTROL FOR STRESS PERIOD    2   TIME STEP    7
 
 SOLVING FOR HEAD 
                                                   Max.-Head-Change                         Max.-Flux-Residual
  Residual-Control   Outer-Iter.   Inner-Iter.     Column Row Layer    Maximum-Head-Change  Column Row Layer    Maximum-Flux-Residual          L2-NORM 
          0                 1           2             5    4     1       0.3790839201E-02       5    4    1         0.2042304030E+00      0.4474016379E+00
          0                 2           2             5    4     1      -0.3687460954E-03       5    4    1        -0.2042309670E-01      0.4466867068E-01
          0                 3           1             5    4     1       0.2511023086E-04       5    4    1         0.1429616859E-02      0.3120145003E-02

    ------------------------------------------------
       NWT REQUIRED            3 OUTER ITERATIONS 
       AND A TOTAL OF          5 INNER ITERATIONS.
    ------------------------------------------------

 NO OUTPUT CONTROL FOR STRESS PERIOD    2   TIME STEP    8
 
 SOLVING FOR HEAD 
                                                   Max.-Head-Change                         Max.-Flux-Residual
  Residual-Control   Outer-Iter.   Inner-Iter.     Column Row Layer    Maximum-Head-Change  Column Row Layer    Maximum-Flux-Residual          L2-NORM 
          0                 1           2             5    4     1       0.3657864785E-02       5    4    1         0.1969163543E+00      0.4356950680E+00
          0                 2           2             5    4     1      -0.3558112468E-03       5    4    1        -0.1969168741E-01      0.4350628254E-01
          0                 3           1             5    4     1       0.2422941649E-04       5    4    1         0.1378418233E-02      0.3039655930E-02

    ------------------------------------------------
       NWT REQUIRED            3 OUTER ITERATIONS 
       AND A TOTAL OF          5 INNER ITERATIONS.
    ------------------------------------------------

 NO OUTPUT CONTROL FOR STRESS PERIOD    2   TIME STEP    9
 
 SOLVING FOR HEAD 
                                                   Max.-Head-Change                         Max.-Flux-Residual
  Residual-Control   Outer-Iter.   Inner-Iter.     Column Row Layer    Maximum-Head-Change  Column Row Layer    Maximum-Flux-Residual          L2-NORM 
          0                 1           2             5    4     1       0.3532230609E-02       5    4    1         0.1900087706E+00      0.4248474512E+00
          0                 2           2             5    4     1      -0.3435904094E-03       5    4    1        -0.1900092505E-01      0.4242879365E-01
          0                 3           1             5    4     1       0.2339722356E-04       5    4    1         0.1330064849E-02      0.2964925330E-02

    ------------------------------------------------
       NWT REQUIRED            3 OUTER ITERATIONS 
       AND A TOTAL OF          5 INNER ITERATIONS.
    ------------------------------------------------

 NO OUTPUT CONTROL FOR STRESS PERIOD    2   TIME STEP   10
 
 SOLVING FOR HEAD 
                                                   Max.-Head-Change                         Max.-Flux-Residual
  Residual-Control   Outer-Iter.   Inner-Iter.     Column Row Layer    Maximum-Head-Change  Column Row Layer    Maximum-Flux-Residual          L2-NORM 
          0                 1           2             5    4     1       0.3413719440E-02       5    4    1         0.1834948456E+00      0.4147734414E+00
          0                 2           2             5    4     1      -0.3320624520E-03       5    4    1        -0.1834952888E-01      0.4142774901E-01
          0                 3           1             5    4     1       0.2261221382E-04       5    4    1         0.1284467161E-02      0.2895291327E-02

    ------------------------------------------------
       NWT REQUIRED            3 OUTER ITERATIONS 
       AND A TOTAL OF          5 INNER ITERATIONS.
    ------------------------------------------------

 NO OUTPUT CONTROL FOR STRESS PERIOD    2   TIME STEP   11
 
 SOLVING FOR HEAD 
                                                   Max.-Head-Change                         Max.-Flux-Residual
  Residual-Control   Outer-Iter.   Inner-Iter.     Column Row Layer    Maximum-Head-Change  Column Row Layer    Maximum-Flux-Residual          L2-NORM 
          0                 1           2             5    4     1       0.3301407998E-02       5    4    1         0.1773240514E+00      0.4054010488E+00
          0                 2           2             5    4     1      -0.3211375633E-03       5    4    1        -0.1773244614E-01      0.4049601151E-01
          0                 3           1             5    4     1       0.2186826997E-04       5    4    1         0.1241271389E-02      0.2830718806E-02

    ------------------------------------------------
       NWT REQUIRED            3 OUTER ITERATIONS 
       AND A TOTAL OF          5 INNER ITERATIONS.
    ------------------------------------------------

 NO OUTPUT CONTROL FOR STRESS PERIOD    2   TIME STEP   12
 
 SOLVING FOR HEAD 
                                                   Max.-Head-Change                         Max.-Flux-Residual
  Residual-Control   Outer-Iter.   Inner-Iter.     Column Row Layer    Maximum-Head-Change  Column Row Layer    Maximum-Flux-Residual          L2-NORM 
          0                 1           2             5    4     1       0.3195383374E-02       5    4    1         0.1715009104E+00      0.3966851202E+00
          0                 2           2             5    4     1      -0.3108242143E-03       5    4    1        -0.1715012899E-01      0.3962953515E-01
          0                 3           1             5    4     1       0.2116597020E-04       5    4    1         0.1200509189E-02      0.2770438961E-02

    ------------------------------------------------
       NWT REQUIRED            3 OUTER ITERATIONS 
       AND A TOTAL OF          5 INNER ITERATIONS.
    ------------------------------------------------

 NO OUTPUT CONTROL FOR STRESS PERIOD    2   TIME STEP   13
 
 SOLVING FOR HEAD 
                                                   Max.-Head-Change                         Max.-Flux-Residual
  Residual-Control   Outer-Iter.   Inner-Iter.     Column Row Layer    Maximum-Head-Change  Column Row Layer    Maximum-Flux-Residual          L2-NORM 
          0                 1           2             5    4     1       0.3094775221E-02       5    4    1         0.1659775448E+00      0.3885592615E+00
          0                 2           2             5    4     1      -0.3010377445E-03       5    4    1        -0.1659778965E-01      0.3882158098E-01
          0                 3           1             5    4     1       0.2049954892E-04       5    4    1         0.1161845449E-02      0.2713995864E-02

    ------------------------------------------------
       NWT REQUIRED            3 OUTER ITERATIONS 
       AND A TOTAL OF          5 INNER ITERATIONS.
    ------------------------------------------------

 NO OUTPUT CONTROL FOR STRESS PERIOD    2   TIME STEP   14
 
 SOLVING FOR HEAD 
                                                   Max.-Head-Change                         Max.-Flux-Residual
  Residual-Control   Outer-Iter.   Inner-Iter.     Column Row Layer    Maximum-Head-Change  Column Row Layer    Maximum-Flux-Residual          L2-NORM 
          0                 1           2             5    4     1       0.2999970496E-02       5    4    1         0.1607742558E+00      0.3809926144E+00
          0                 2           2             5    4     1      -0.2918157933E-03       5    4    1        -0.1607745822E-01      0.3806886680E-01
          0                 3           1             5    4     1       0.1987156858E-04       5    4    1         0.1125422250E-02      0.2662045226E-02

    ------------------------------------------------
       NWT REQUIRED            3 OUTER ITERATIONS 
       AND A TOTAL OF          5 INNER ITERATIONS.
    ------------------------------------------------

 NO OUTPUT CONTROL FOR STRESS PERIOD    2   TIME STEP   15
 
 SOLVING FOR HEAD 
                                                   Max.-Head-Change                         Max.-Flux-Residual
  Residual-Control   Outer-Iter.   Inner-Iter.     Column Row Layer    Maximum-Head-Change  Column Row Layer    Maximum-Flux-Residual          L2-NORM 
          0                 1           2             5    4     1       0.2909894024E-02       5    4    1         0.1558326222E+00      0.3739167242E+00
          0                 2           2             5    4     1      -0.2830537752E-03       5    4    1        -0.1558329251E-01      0.3736475261E-01
          0                 3           1             5    4     1       0.1927490840E-04       5    4    1         0.1090830656E-02      0.2613179974E-02

    ------------------------------------------------
       NWT REQUIRED            3 OUTER ITERATIONS 
       AND A TOTAL OF          5 INNER ITERATIONS.
    ------------------------------------------------

 NO OUTPUT CONTROL FOR STRESS PERIOD    2   TIME STEP   16
 
 SOLVING FOR HEAD 
                                                   Max.-Head-Change                         Max.-Flux-Residual
  Residual-Control   Outer-Iter.   Inner-Iter.     Column Row Layer    Maximum-Head-Change  Column Row Layer    Maximum-Flux-Residual          L2-NORM 
          0                 1           2             5    4     1       0.2824734754E-02       5    4    1         0.1511623018E+00      0.3673108398E+00
          0                 2           2             5    4     1      -0.2747700697E-03       5    4    1        -0.1511625835E-01      0.3670722980E-01
          0                 3           1             5    4     1       0.1871081966E-04       5    4    1         0.1058138277E-02      0.2567322380E-02

    ------------------------------------------------
       NWT REQUIRED            3 OUTER ITERATIONS 
       AND A TOTAL OF          5 INNER ITERATIONS.
    ------------------------------------------------

 NO OUTPUT CONTROL FOR STRESS PERIOD    2   TIME STEP   17
 
 SOLVING FOR HEAD 
                                                   Max.-Head-Change                         Max.-Flux-Residual
  Residual-Control   Outer-Iter.   Inner-Iter.     Column Row Layer    Maximum-Head-Change  Column Row Layer    Maximum-Flux-Residual          L2-NORM 
          0                 1           2             5    4     1       0.2743946317E-02       5    4    1         0.1467338490E+00      0.3611125834E+00
          0                 2           2             5    4     1      -0.2669115301E-03       5    4    1        -0.1467341113E-01      0.3609012200E-01
          0                 3           1             5    4     1       0.1817568317E-04       5    4    1         0.1027138984E-02      0.2524302280E-02

    ------------------------------------------------
       NWT REQUIRED            3 OUTER ITERATIONS 
       AND A TOTAL OF          5 INNER ITERATIONS.
    ------------------------------------------------

 NO OUTPUT CONTROL FOR STRESS PERIOD    2   TIME STEP   18
 
 SOLVING FOR HEAD 
                                                   Max.-Head-Change                         Max.-Flux-Residual
  Residual-Control   Outer-Iter.   Inner-Iter.     Column Row Layer    Maximum-Head-Change  Column Row Layer    Maximum-Flux-Residual          L2-NORM 
          0                 1           2             5    4     1       0.2667267928E-02       5    4    1         0.1425320160E+00      0.3553067073E+00
          0                 2           2             5    4     1      -0.2594527879E-03       5    4    1        -0.1425322602E-01      0.3551210940E-01
          0                 3           1             5    4     1       0.1766777144E-04       5    4    1         0.9977260479E-03      0.2484093864E-02

    ------------------------------------------------
       NWT REQUIRED            3 OUTER ITERATIONS 
       AND A TOTAL OF          5 INNER ITERATIONS.
    ------------------------------------------------

 NO OUTPUT CONTROL FOR STRESS PERIOD    2   TIME STEP   19
 
 SOLVING FOR HEAD 
                                                   Max.-Head-Change                         Max.-Flux-Residual
  Residual-Control   Outer-Iter.   Inner-Iter.     Column Row Layer    Maximum-Head-Change  Column Row Layer    Maximum-Flux-Residual          L2-NORM 
          0                 1           2             5    4     1       0.2594683874E-02       5    4    1         0.1385563632E+00      0.3498584713E+00
          0                 2           2             5    4     1      -0.2523923151E-03       5    4    1        -0.1385565912E-01      0.3496913352E-01
          0                 3           1             5    4     1       0.1718697963E-04       5    4    1         0.9698963459E-03      0.2446047290E-02

    ------------------------------------------------
       NWT REQUIRED            3 OUTER ITERATIONS 
       AND A TOTAL OF          5 INNER ITERATIONS.
    ------------------------------------------------

 NO OUTPUT CONTROL FOR STRESS PERIOD    2   TIME STEP   20
 
 SOLVING FOR HEAD 
                                                   Max.-Head-Change                         Max.-Flux-Residual
  Residual-Control   Outer-Iter.   Inner-Iter.     Column Row Layer    Maximum-Head-Change  Column Row Layer    Maximum-Flux-Residual          L2-NORM 
          0                 1           2             5    4     1       0.2525710318E-02       5    4    1         0.1347799133E+00      0.3447335523E+00
          0                 2           2             5    4     1      -0.2456830467E-03       5    4    1        -0.1347801258E-01      0.3445867527E-01
          0                 3           1             5    4     1       0.1673010413E-04       5    4    1         0.9434610924E-03      0.2410737664E-02

    ------------------------------------------------
       NWT REQUIRED            3 OUTER ITERATIONS 
       AND A TOTAL OF          5 INNER ITERATIONS.
    ------------------------------------------------

 NO OUTPUT CONTROL FOR STRESS PERIOD    2   TIME STEP   21
 
 SOLVING FOR HEAD 
                                                   Max.-Head-Change                         Max.-Flux-Residual
  Residual-Control   Outer-Iter.   Inner-Iter.     Column Row Layer    Maximum-Head-Change  Column Row Layer    Maximum-Flux-Residual          L2-NORM 
          0                 1           2             5    4     1       0.2460369697E-02       5    4    1         0.1312037428E+00      0.3399136851E+00
          0                 2           2             5    4     1      -0.2393271658E-03       5    4    1        -0.1312039414E-01      0.3397835671E-01
          0                 3           1             5    4     1       0.1629729285E-04       5    4    1         0.9184278090E-03      0.2377290751E-02

    ------------------------------------------------
       NWT REQUIRED            3 OUTER ITERATIONS 
       AND A TOTAL OF          5 INNER ITERATIONS.
    ------------------------------------------------

 NO OUTPUT CONTROL FOR STRESS PERIOD    2   TIME STEP   22
 
 SOLVING FOR HEAD 
                                                   Max.-Head-Change                         Max.-Flux-Residual
  Residual-Control   Outer-Iter.   Inner-Iter.     Column Row Layer    Maximum-Head-Change  Column Row Layer    Maximum-Flux-Residual          L2-NORM 
          0                 1           2             5    4     1       0.2398203527E-02       5    4    1         0.1278028525E+00      0.3353733044E+00
          0                 2           2             5    4     1      -0.2332800742E-03       5    4    1        -0.1278030381E-01      0.3352587781E-01
          0                 3           1             5    4     1       0.1588550905E-04       5    4    1         0.8946214930E-03      0.2345740745E-02

    ------------------------------------------------
       NWT REQUIRED            3 OUTER ITERATIONS 
       AND A TOTAL OF          5 INNER ITERATIONS.
    ------------------------------------------------

 NO OUTPUT CONTROL FOR STRESS PERIOD    2   TIME STEP   23
 
 SOLVING FOR HEAD 
                                                   Max.-Head-Change                         Max.-Flux-Residual
  Residual-Control   Outer-Iter.   Inner-Iter.     Column Row Layer    Maximum-Head-Change  Column Row Layer    Maximum-Flux-Residual          L2-NORM 
          0                 1           2             5    4     1       0.2339267473E-02       5    4    1         0.1245796789E+00      0.3310885217E+00
          0                 2           2             5    4     1      -0.2275471861E-03       5    4    1        -0.1245798528E-01      0.3309851874E-01
          0                 3           1             5    4     1       0.1549512122E-04       5    4    1         0.8720591832E-03      0.2315882109E-02

    ------------------------------------------------
       NWT REQUIRED            3 OUTER ITERATIONS 
       AND A TOTAL OF          5 INNER ITERATIONS.
    ------------------------------------------------

 NO OUTPUT CONTROL FOR STRESS PERIOD    2   TIME STEP   24
 
 SOLVING FOR HEAD 
                                                   Max.-Head-Change                         Max.-Flux-Residual
  Residual-Control   Outer-Iter.   Inner-Iter.     Column Row Layer    Maximum-Head-Change  Column Row Layer    Maximum-Flux-Residual          L2-NORM 
          0                 1           2             5    4     1       0.2283365698E-02       5    4    1         0.1215238906E+00      0.3270408771E+00
          0                 2           2             5    4     1      -0.2221094521E-03       5    4    1        -0.1215240536E-01      0.3269509909E-01
          0                 3           1             5    4     1       0.1512483193E-04       5    4    1         0.8506685831E-03      0.2287891361E-02

    ------------------------------------------------
       NWT REQUIRED            3 OUTER ITERATIONS 
       AND A TOTAL OF          5 INNER ITERATIONS.
    ------------------------------------------------

 NO OUTPUT CONTROL FOR STRESS PERIOD    2   TIME STEP   25
 
 SOLVING FOR HEAD 
                                                   Max.-Head-Change                         Max.-Flux-Residual
  Residual-Control   Outer-Iter.   Inner-Iter.     Column Row Layer    Maximum-Head-Change  Column Row Layer    Maximum-Flux-Residual          L2-NORM 
          0                 1           2             5    4     1       0.2230079846E-02       5    4    1         0.1186123882E+00      0.3232037862E+00
          0                 2           2             5    4     1      -0.2169261767E-03       5    4    1        -0.1186125409E-01      0.3231225773E-01
          0                 3           1             5    4     1       0.1477187043E-04       5    4    1         0.8302879903E-03      0.2261016746E-02

    ------------------------------------------------
       NWT REQUIRED            3 OUTER ITERATIONS 
       AND A TOTAL OF          5 INNER ITERATIONS.
    ------------------------------------------------

 NO OUTPUT CONTROL FOR STRESS PERIOD    2   TIME STEP   26
 
 SOLVING FOR HEAD 
                                                   Max.-Head-Change                         Max.-Flux-Residual
  Residual-Control   Outer-Iter.   Inner-Iter.     Column Row Layer    Maximum-Head-Change  Column Row Layer    Maximum-Flux-Residual          L2-NORM 
          0                 1           2             5    4     1       0.2179256357E-02       5    4    1         0.1158365170E+00      0.3195661512E+00
          0                 2           2             5    4     1      -0.2119824240E-03       5    4    1        -0.1158366605E-01      0.3194946474E-01
          0                 3           1             5    4     1       0.1443521974E-04       5    4    1         0.8108568304E-03      0.2235872331E-02

    ------------------------------------------------
       NWT REQUIRED            3 OUTER ITERATIONS 
       AND A TOTAL OF          5 INNER ITERATIONS.
    ------------------------------------------------

 NO OUTPUT CONTROL FOR STRESS PERIOD    2   TIME STEP   27
 
 SOLVING FOR HEAD 
                                                   Max.-Head-Change                         Max.-Flux-Residual
  Residual-Control   Outer-Iter.   Inner-Iter.     Column Row Layer    Maximum-Head-Change  Column Row Layer    Maximum-Flux-Residual          L2-NORM 
          0                 1           2             5    4     1       0.2131225068E-02       5    4    1         0.1132144787E+00      0.3161253915E+00
          0                 2           2             5    4     1      -0.2073102767E-03       5    4    1        -0.1132146134E-01      0.3160621951E-01
          0                 3           1             5    4     1       0.1411706459E-04       5    4    1         0.7925025059E-03      0.2211814484E-02

    ------------------------------------------------
       NWT REQUIRED            3 OUTER ITERATIONS 
       AND A TOTAL OF          5 INNER ITERATIONS.
    ------------------------------------------------

 NO OUTPUT CONTROL FOR STRESS PERIOD    2   TIME STEP   28
 
 SOLVING FOR HEAD 
                                                   Max.-Head-Change                         Max.-Flux-Residual
  Residual-Control   Outer-Iter.   Inner-Iter.     Column Row Layer    Maximum-Head-Change  Column Row Layer    Maximum-Flux-Residual          L2-NORM 
          0                 1           2             5    4     1       0.2085111076E-02       5    4    1         0.1106979657E+00      0.3128491516E+00
          0                 2           2             5    4     1      -0.2028246317E-03       5    4    1        -0.1106980924E-01      0.3127911464E-01
          0                 3           1             5    4     1       0.1381160957E-04       5    4    1         0.7748868904E-03      0.2188973678E-02

    ------------------------------------------------
       NWT REQUIRED            3 OUTER ITERATIONS 
       AND A TOTAL OF          5 INNER ITERATIONS.
    ------------------------------------------------

 NO OUTPUT CONTROL FOR STRESS PERIOD    2   TIME STEP   29
 
 SOLVING FOR HEAD 
                                                   Max.-Head-Change                         Max.-Flux-Residual
  Residual-Control   Outer-Iter.   Inner-Iter.     Column Row Layer    Maximum-Head-Change  Column Row Layer    Maximum-Flux-Residual          L2-NORM 
          0                 1           2             5    4     1       0.2041517049E-02       5    4    1         0.1083201072E+00      0.3097361467E+00
          0                 2           2             5    4     1      -0.1985841105E-03       5    4    1        -0.1083202265E-01      0.3096867111E-01
          0                 3           1             5    4     1       0.1352284593E-04       5    4    1         0.7582417979E-03      0.2167358548E-02

    ------------------------------------------------
       NWT REQUIRED            3 OUTER ITERATIONS 
       AND A TOTAL OF          5 INNER ITERATIONS.
    ------------------------------------------------

 NO OUTPUT CONTROL FOR STRESS PERIOD    2   TIME STEP   30



 STREAM LISTING     PERIOD      2   STEP       30

 LAYER ROW COL. STREAM  RCH.  FLOW INTO     FLOW TO   FLOW OUT OF   OVRLND.     DIRECT     STREAM       STREAM     STREAM     STREAM   STREAMBED  STREAMBED
                SEG.NO.  NO.  STRM. RCH.    AQUIFER    STRM. RCH.    RUNOFF     PRECIP       ET          HEAD       DEPTH      WIDTH   CONDCTNC.   GRADIENT

   1    1    1     1     1    8.2500E+00  1.3178E-01   8.1182E+00  0.000E+00  0.000E+00  0.000E+00  1.09389E+03  8.424E-01  7.622E+00  3.430E-02  1.281E+00
   1    2    2     1     2    8.1182E+00  2.0240E-01   7.9158E+00  0.000E+00  0.000E+00  0.000E+00  1.08890E+03  8.367E-01  7.536E+00  5.276E-02  1.279E+00
   1    3    3     1     3    7.9158E+00  1.7099E-01   7.7448E+00  0.000E+00  0.000E+00  0.000E+00  1.08325E+03  8.302E-01  7.440E+00  4.464E-02  1.277E+00
   1    3    4     1     4    7.7448E+00  1.5612E-01   7.5887E+00  0.000E+00  0.000E+00  0.000E+00  1.07823E+03  8.244E-01  7.355E+00  4.082E-02  1.275E+00
   1    4    5     2     1    5.5887E+00  2.7178E-01   5.3169E+00  0.000E+00  0.000E+00  0.000E+00  1.07242E+03  4.843E-01  1.200E+01  7.800E-02  1.161E+00
   1    5    6     2     2    5.3169E+00  2.0828E-01   5.1087E+00  0.000E+00  0.000E+00  0.000E+00  1.06698E+03  4.714E-01  1.200E+01  6.000E-02  1.157E+00
   1    6    6     2     3    5.1087E+00  2.0760E-01   4.9010E+00  0.000E+00  0.000E+00  0.000E+00  1.06225E+03  4.600E-01  1.200E+01  6.000E-02  1.153E+00
   1    7    6     2     4    4.9010E+00  2.0691E-01   4.6941E+00  0.000E+00  0.000E+00  0.000E+00  1.05752E+03  4.485E-01  1.200E+01  6.000E-02  1.149E+00
   1    8    6     2     5    4.6941E+00  2.0621E-01   4.4879E+00  0.000E+00  0.000E+00  0.000E+00  1.05280E+03  4.368E-01  1.200E+01  6.000E-02  1.146E+00
   1    3    5     3     1    2.0000E+00  2.8252E-01   1.7175E+00  0.000E+00  0.000E+00  0.000E+00  1.07555E+03  1.909E+00  9.636E+00  7.227E-02  1.955E+00
   1    3    6     3     2    1.7175E+00  2.4905E-01   1.4684E+00  0.000E+00  0.000E+00  0.000E+00  1.07264E+03  1.727E+00  8.909E+00  6.682E-02  1.864E+00
   1    3    7     3     3    1.4684E+00  1.9718E-01   1.2712E+00  0.000E+00  0.000E+00  0.000E+00  1.06987E+03  1.555E+00  8.218E+00  5.547E-02  1.777E+00
   1    4    8     3     4    1.2712E+00  2.2567E-01   1.0456E+00  0.000E+00  0.000E+00  0.000E+00  1.06682E+03  1.364E+00  7.455E+00  6.709E-02  1.682E+00
   1    5    8     3     5    1.0456E+00  1.5790E-01   8.8768E-01  0.000E+00  0.000E+00  0.000E+00  1.06362E+03  1.164E+00  6.655E+00  4.991E-02  1.582E+00
   1    6    8     3     6    8.8768E-01  5.5980E-02   8.3170E-01  0.000E+00  0.000E+00  0.000E+00  1.06158E+03  1.036E+00  6.145E+00  1.844E-02  1.518E+00
   1    5   10     4     1    1.0000E+01  9.0919E-02   9.9091E+00  0.000E+00  0.000E+00  0.000E+00  1.07836E+03  6.368E-01  1.000E+01  2.500E-02  1.212E+00
   1    5    9     4     2    9.9091E+00  1.8158E-01   9.7275E+00  0.000E+00  0.000E+00  0.000E+00  1.07154E+03  6.315E-01  1.000E+01  5.000E-02  1.211E+00
   1    6    8     4     3    9.7275E+00  1.2689E-01   9.6006E+00  0.000E+00  0.000E+00  0.000E+00  1.06381E+03  6.256E-01  1.000E+01  3.500E-02  1.209E+00
   1    6    8     5     1    1.0432E+01  2.2686E-01   1.0205E+01  0.000E+00  0.000E+00  0.000E+00  1.05868E+03  6.790E-01  1.542E+01  6.166E-02  1.226E+00
   1    7    7     5     2    1.0205E+01  2.7894E-01   9.9265E+00  0.000E+00  0.000E+00  0.000E+00  1.05417E+03  6.732E-01  1.519E+01  7.594E-02  1.224E+00
   1    8    7     5     3    9.9265E+00  1.9221E-01   9.7343E+00  0.000E+00  0.000E+00  0.000E+00  1.04992E+03  6.676E-01  1.497E+01  5.241E-02  1.223E+00
   1    8    6     5     4    9.7343E+00  1.3577E-01   9.5985E+00  0.000E+00  0.000E+00  0.000E+00  1.04691E+03  6.637E-01  1.482E+01  3.706E-02  1.221E+00
   1    9    6     6     1    1.4086E+01  2.3167E-01   1.3855E+01  0.000E+00  0.000E+00  0.000E+00  1.04359E+03  8.612E-01  1.200E+01  6.000E-02  1.287E+00
   1   10    7     6     2    1.3855E+01  2.3116E-01   1.3624E+01  0.000E+00  0.000E+00  0.000E+00  1.03903E+03  8.526E-01  1.200E+01  6.000E-02  1.284E+00
   1   11    7     6     3    1.3624E+01  2.3064E-01   1.3393E+01  0.000E+00  0.000E+00  0.000E+00  1.03448E+03  8.440E-01  1.200E+01  6.000E-02  1.281E+00
   1   12    7     6     4    1.3393E+01  2.3012E-01   1.3163E+01  0.000E+00  0.000E+00  0.000E+00  1.02993E+03  8.353E-01  1.200E+01  6.000E-02  1.278E+00
   1   13    7     6     5    1.3163E+01 -2.0977E-02   1.3184E+01  0.000E+00  0.000E+00  0.000E+00  1.02674E+03  8.314E-01  1.200E+01  2.400E-01 -2.913E-02
   1   14    9     7     1    1.5000E+02  1.3658E+00   1.4863E+02  0.000E+00  0.000E+00  0.000E+00  1.03987E+03  2.288E+00  5.529E+01  5.593E-01  8.140E-01
   1   13    8     7     2    1.4863E+02  1.9203E+00   1.4671E+02  0.000E+00  0.000E+00  0.000E+00  1.03478E+03  2.279E+00  5.526E+01  6.148E-01  1.041E+00
   1   13    7     7     3    1.4671E+02  1.5976E+00   1.4512E+02  0.000E+00  0.000E+00  0.000E+00  1.02969E+03  2.270E+00  5.521E+01  5.584E-01  9.537E-01
   1   13    6     8     1    1.5830E+02  9.7214E-01   1.5733E+02  0.000E+00  0.000E+00  0.000E+00  1.02475E+03  2.871E+00  4.163E+01  4.242E-01  7.639E-01
   1   13    5     8     2    1.5733E+02  2.2507E-01   1.5710E+02  0.000E+00  0.000E+00  0.000E+00  1.01849E+03  2.867E+00  4.157E+01  4.236E-01  1.771E-01
   1   13    4     8     3    1.5710E+02 -2.2709E+00   1.5937E+02  0.000E+00  0.000E+00  0.000E+00  1.01225E+03  2.874E+00  4.167E+01  4.246E+00 -1.783E-01
   1   13    3     8     4    1.5937E+02 -3.5514E+00   1.6293E+02  0.000E+00  0.000E+00  0.000E+00  1.00602E+03  2.894E+00  4.196E+01  4.276E+00 -2.769E-01
   1   13    2     8     5    1.6293E+02 -2.5395E+00   1.6546E+02  0.000E+00  0.000E+00  0.000E+00  9.99789E+02  2.914E+00  4.225E+01  4.306E+00 -1.966E-01
   1   13    1     8     6    1.6546E+02 -1.9547E+00   1.6742E+02  0.000E+00  0.000E+00  0.000E+00  9.94804E+02  2.929E+00  4.247E+01  2.597E+00 -2.509E-01
   1    8    6     9     1    0.0000E+00  0.0000E+00   0.0000E+00  0.000E+00  0.000E+00  0.000E+00  1.07875E+03  0.000E+00  4.000E+00  0.000E+00  1.000E+00
   1    8    5     9     2    0.0000E+00  0.0000E+00   0.0000E+00  0.000E+00  0.000E+00  0.000E+00  1.07825E+03  0.000E+00  4.000E+00  0.000E+00  1.000E+00





UNSATURATED ZONE PACKAGE VOLUMETRIC BUDGET FOR  TIME STEP    30 STRESS PERIOD    2
  ------------------------------------------------------------------------------



     CUMULATIVE VOLUMES      L**3       RATES FOR THIS TIME STEP      L**3/T
     ------------------                 ------------------------

           IN:                                      IN:
           ---                                      ---
        INFILTRATION =     2302148.8727          INFILTRATION =           0.8475

          OUT:                                     OUT:
          ----                                     ----
              UZF ET =     1972485.7128                UZF ET =           0.7500
        UZF RECHARGE =       73224.0000          UZF RECHARGE =       0.0000E+00

            IN - OUT =      256439.1600              IN - OUT =       9.7500E-02

          STORAGE:                                 STORAGE:
          --------                                 --------
      STORAGE CHANGE =      256439.1819        STORAGE CHANGE =       9.7500E-02

 PERCENT DISCREPANCY IS DIFFERENCE BETWEEN IN-OUT MINUS CHANGE IN STORAGE
 DIVIDED BY THE AVERAGE OF IN AND OUT TIMES 100

 PERCENT DISCREPANCY =          -0.00     PERCENT DISCREPANCY =           0.00






1
  VOLUMETRIC BUDGET FOR AGRICULTURAL FIELDS AT  END OF TIME STEP   30, STRESS PERIOD   2
  ------------------------------------------------------------------------------

     CUMULATIVE VOLUMES      L**3       RATES FOR THIS TIME STEP      L**3/T
     ------------------                 ------------------------

           IN:                                      IN:
           ---                                      ---
               AG WELLS  =           0.0000                 AG WELLS  =           0.0000
      DIVERSION SEGMENTS =           0.0000        DIVERSION SEGMENTS =           0.0000
       IRRIGATION PONDS  =           0.0000         IRRIGATION PONDS  =           0.0000
           GW IRRIGATION =           0.0000             GW IRRIGATION =           0.0000
           SW IRRIGATION =           0.0000             SW IRRIGATION =           0.0000
        SYSTEM LOSSES GW =           0.0000          SYSTEM LOSSES GW =           0.0000
        SYSTEM LOSSES SW =           0.0000          SYSTEM LOSSES SW =           0.0000

                TOTAL IN =           0.0000                  TOTAL IN =           0.0000

          OUT:                                     OUT:
          ----                                     ----
               AG WELLS  =           0.0000                 AG WELLS  =           0.0000
      DIVERSION SEGMENTS =           0.0000        DIVERSION SEGMENTS =           0.0000
       IRRIGATION PONDS  =           0.0000         IRRIGATION PONDS  =           0.0000
           GW IRRIGATION =           0.0000             GW IRRIGATION =           0.0000
           SW IRRIGATION =           0.0000             SW IRRIGATION =           0.0000
        SYSTEM LOSSES GW =           0.0000          SYSTEM LOSSES GW =           0.0000
        SYSTEM LOSSES SW =           0.0000          SYSTEM LOSSES SW =           0.0000

               TOTAL OUT =           0.0000                 TOTAL OUT =           0.0000

                IN - OUT =           0.0000                  IN - OUT =           0.0000

     PERCENT DISCREPANCY =           0.00         PERCENT DISCREPANCY =           0.00



1
  VOLUMETRIC BUDGET FOR ENTIRE MODEL AT END OF TIME STEP   30, STRESS PERIOD   2
  ------------------------------------------------------------------------------

     CUMULATIVE VOLUMES      L**3       RATES FOR THIS TIME STEP      L**3/T
     ------------------                 ------------------------

           IN:                                      IN:
           ---                                      ---
             STORAGE     =     1698293.2500               STORAGE     =           0.5858
       CONSTANT HEAD     =           0.0000         CONSTANT HEAD     =           0.0000
     HEAD DEP BOUNDS     =      781723.8750       HEAD DEP BOUNDS     =           0.2878
      STREAM LEAKAGE     =    30218964.0000        STREAM LEAKAGE     =          11.1681
        UZF RECHARGE     =       73223.9531          UZF RECHARGE     =           0.0000
               GW ET     =           0.0000                 GW ET     =           0.0000
     SURFACE LEAKAGE     =           0.0000       SURFACE LEAKAGE     =           0.0000
           AG WELLS      =           0.0000             AG WELLS      =           0.0000

                TOTAL IN =    32772204.0000                  TOTAL IN =          12.0417

          OUT:                                     OUT:
          ----                                     ----
             STORAGE     =     4124340.2500               STORAGE     =           1.4173
       CONSTANT HEAD     =           0.0000         CONSTANT HEAD     =           0.0000
     HEAD DEP BOUNDS     =      779352.1875       HEAD DEP BOUNDS     =           0.2872
      STREAM LEAKAGE     =    27869200.0000        STREAM LEAKAGE     =          10.3374
        UZF RECHARGE     =           0.0000          UZF RECHARGE     =           0.0000
               GW ET     =           0.0000                 GW ET     =           0.0000
     SURFACE LEAKAGE     =           0.0000       SURFACE LEAKAGE     =           0.0000
           AG WELLS      =           0.0000             AG WELLS      =           0.0000

               TOTAL OUT =    32772892.0000                 TOTAL OUT =          12.0419

                IN - OUT =        -688.0000                  IN - OUT =      -2.3460E-04

     PERCENT DISCREPANCY =          -0.00         PERCENT DISCREPANCY =          -0.00






         TIME SUMMARY AT END OF TIME STEP   30 IN STRESS PERIOD    2
                    SECONDS     MINUTES      HOURS       DAYS        YEARS
                    -----------------------------------------------------------
   TIME STEP LENGTH  87667.      1461.1      24.352      1.0147     2.77799E-03
 STRESS PERIOD TIME 2.63000E+06  43833.      730.56      30.440     8.33397E-02
         TOTAL TIME 2.71640E+06  45273.      754.56      31.440     8.60775E-02
1
1
                            STRESS PERIOD NO.    3, LENGTH =   2630000.    
                            -----------------------------------------------

                              NUMBER OF TIME STEPS =    30

                               MULTIPLIER FOR DELT =     1.000

                            INITIAL TIME STEP SIZE =   87666.66    

 REUSING NON-PARAMETER GHB CELLS FROM LAST STRESS PERIOD

      2 GHB CELLS

 REUSING STREAM SEGMENT DATA FROM LAST STRESS PERIOD



            AREAL INFILTRATION RATE
 READING ON UNIT   19 WITH FORMAT: (FREE)              

            1           2           3           4           5           6           7           8           9          10
 ........................................................................................................................
   1   1.0000E-10  2.0000E-10   0.000       0.000       0.000       0.000       0.000       0.000       0.000       0.000    
   2   2.0000E-10  1.0000E-10  2.0000E-10   0.000       0.000      8.0000E-10  8.0000E-10  5.0000E-10   0.000       0.000    
   3    0.000      5.0000E-10  1.0000E-10  1.0000E-10  8.0000E-10  8.0000E-10  5.0000E-10  5.0000E-10   0.000       0.000    
   4   8.0000E-10  5.0000E-10  1.0000E-10  1.0000E-10  1.0000E-10  1.0000E-10  1.0000E-10  1.0000E-10  2.0000E-10   0.000    
   5   8.0000E-10  5.0000E-10  1.0000E-10  1.0000E-10  1.0000E-10  1.0000E-10  1.0000E-10  1.0000E-10  1.0000E-10  1.0000E-10
   6   8.0000E-10  5.0000E-10  5.0000E-10  2.0000E-10  2.0000E-10  1.0000E-10  1.0000E-10  1.0000E-10  1.0000E-10  5.0000E-10
   7   8.0000E-10  5.0000E-10  5.0000E-10  2.0000E-10  2.0000E-10  1.0000E-10  1.0000E-10  2.0000E-10  2.0000E-10   0.000    
   8    0.000      5.0000E-10  5.0000E-10  2.0000E-10  2.0000E-10  1.0000E-10  1.0000E-10  2.0000E-10  5.0000E-10   0.000    
   9    0.000      5.0000E-10  5.0000E-10  2.0000E-10  2.0000E-10  1.0000E-10  1.0000E-10  2.0000E-10  5.0000E-10   0.000    
  10    0.000      5.0000E-10  5.0000E-10  2.0000E-10  2.0000E-10  1.0000E-10  1.0000E-10  2.0000E-10  5.0000E-10  8.0000E-10
  11    0.000      1.0000E-10  1.0000E-10  1.0000E-10  1.0000E-10  1.0000E-10  1.0000E-10  2.0000E-10  5.0000E-10   0.000    
  12   1.0000E-10  1.0000E-10  1.0000E-10  1.0000E-10  1.0000E-10  1.0000E-10  1.0000E-10  1.0000E-10  2.0000E-10   0.000    
  13   1.0000E-10  1.0000E-10  2.0000E-10  2.0000E-10  2.0000E-10  2.0000E-10  2.0000E-10  1.0000E-10  1.0000E-10   0.000    
  14    0.000      2.0000E-10  5.0000E-10  5.0000E-10  5.0000E-10  5.0000E-10  5.0000E-10  2.0000E-10  1.0000E-10   0.000    
  15    0.000       0.000      8.0000E-10  8.0000E-10  8.0000E-10  8.0000E-10   0.000       0.000       0.000       0.000    

                  ET RATE =  5.000000E-10

 USING ET EXTINCTION DEPTH FROM PREVIOUS STRESS PERIOD. CURRENT PERIOD IS:       3

 USING EXTINCTION WATER CONTENT FROM PREVIOUS STRESS PERIOD. CURRENT PERIOD IS:       3

 USING AIR ENTRY PRESSURE FROM PREVIOUS STRESS PERIOD. CURRENT PERIOD IS:       3

 USING ROOT PRESSURE HEAD FROM PREVIOUS STRESS PERIOD. CURRENT PERIOD IS:       3

 USING ROOT ACTIVITY FROM PREVIOUS STRESS PERIOD. CURRENT PERIOD IS:       3

 PROCESSING AG STRESS PERIOD DATA

 READING AG STRESS PERIOD DATA

 READING IRRIGATION SEGMENT

 READING IRRIGATION WELL

 READING SUPPLEMENTAL WELL

 NO IRRPOND OR REUSING IRRPOND DATA FROM LAST STRESS PERIOD

 END PROCESSING AG STRESS PERIOD DATA OPTIONS
 
 SOLVING FOR HEAD 
                                                   Max.-Head-Change                         Max.-Flux-Residual
  Residual-Control   Outer-Iter.   Inner-Iter.     Column Row Layer    Maximum-Head-Change  Column Row Layer    Maximum-Flux-Residual          L2-NORM 
          0                 1           2             2    2     1       0.2525011357E-02       2    2    1         0.1319005112E+00      0.4039561040E+00
          0                 2           2             2    2     1      -0.2456150129E-03       2    2    1        -0.1319006855E-01      0.4181694327E-01
          0                 3           1             2    2     1       0.1672546936E-04       2    2    1         0.9233050379E-03      0.2906724711E-02

    ------------------------------------------------
       NWT REQUIRED            3 OUTER ITERATIONS 
       AND A TOTAL OF          5 INNER ITERATIONS.
    ------------------------------------------------

 NO OUTPUT CONTROL FOR STRESS PERIOD    3   TIME STEP    1
 
 SOLVING FOR HEAD 
                                                   Max.-Head-Change                         Max.-Flux-Residual
  Residual-Control   Outer-Iter.   Inner-Iter.     Column Row Layer    Maximum-Head-Change  Column Row Layer    Maximum-Flux-Residual          L2-NORM 
          0                 1           2             2    2     1       0.3324231131E-02       2    2    1         0.1736614038E+00      0.5146754142E+00
          0                 2           2             2    2     1      -0.3233575028E-03       2    2    1        -0.1736617106E-01      0.5102024440E-01
          0                 3           1             2    2     1       0.2201944266E-04       2    2    1         0.1215632199E-02      0.3530081504E-02

    ------------------------------------------------
       NWT REQUIRED            3 OUTER ITERATIONS 
       AND A TOTAL OF          5 INNER ITERATIONS.
    ------------------------------------------------

 NO OUTPUT CONTROL FOR STRESS PERIOD    3   TIME STEP    2
 
 SOLVING FOR HEAD 
                                                   Max.-Head-Change                         Max.-Flux-Residual
  Residual-Control   Outer-Iter.   Inner-Iter.     Column Row Layer    Maximum-Head-Change  Column Row Layer    Maximum-Flux-Residual          L2-NORM 
          0                 1           2             2    2     1       0.3301480467E-02       2    2    1         0.1724651001E+00      0.4998439178E+00
          0                 2           2             2    2     1      -0.3211444747E-03       2    2    1        -0.1724654009E-01      0.4958929944E-01
          0                 3           1             2    2     1       0.2186874379E-04       2    2    1         0.1207258049E-02      0.3434935461E-02

    ------------------------------------------------
       NWT REQUIRED            3 OUTER ITERATIONS 
       AND A TOTAL OF          5 INNER ITERATIONS.
    ------------------------------------------------

 NO OUTPUT CONTROL FOR STRESS PERIOD    3   TIME STEP    3
 
 SOLVING FOR HEAD 
                                                   Max.-Head-Change                         Max.-Flux-Residual
  Residual-Control   Outer-Iter.   Inner-Iter.     Column Row Layer    Maximum-Head-Change  Column Row Layer    Maximum-Flux-Residual          L2-NORM 
          0                 1           2             2    2     1       0.3279131818E-02       2    2    1         0.1712899373E+00      0.4865714186E+00
          0                 2           2             2    2     1      -0.3189705518E-03       2    2    1        -0.1712902324E-01      0.4830887629E-01
          0                 3           1             2    2     1       0.2172070774E-04       2    2    1         0.1199031861E-02      0.3349499608E-02

    ------------------------------------------------
       NWT REQUIRED            3 OUTER ITERATIONS 
       AND A TOTAL OF          5 INNER ITERATIONS.
    ------------------------------------------------

 NO OUTPUT CONTROL FOR STRESS PERIOD    3   TIME STEP    4
 
 SOLVING FOR HEAD 
                                                   Max.-Head-Change                         Max.-Flux-Residual
  Residual-Control   Outer-Iter.   Inner-Iter.     Column Row Layer    Maximum-Head-Change  Column Row Layer    Maximum-Flux-Residual          L2-NORM 
          0                 1           2             2    2     1       0.3257010121E-02       2    2    1         0.1701267478E+00      0.4746967975E+00
          0                 2           2             2    2     1      -0.3168187054E-03       2    2    1        -0.1701270371E-01      0.4716328635E-01
          0                 3           1             2    2     1       0.2157417503E-04       2    2    1         0.1190889507E-02      0.3270890237E-02

    ------------------------------------------------
       NWT REQUIRED            3 OUTER ITERATIONS 
       AND A TOTAL OF          5 INNER ITERATIONS.
    ------------------------------------------------

 NO OUTPUT CONTROL FOR STRESS PERIOD    3   TIME STEP    5
 
 SOLVING FOR HEAD 
                                                   Max.-Head-Change                         Max.-Flux-Residual
  Residual-Control   Outer-Iter.   Inner-Iter.     Column Row Layer    Maximum-Head-Change  Column Row Layer    Maximum-Flux-Residual          L2-NORM 
          0                 1           2             2    2     1       0.3235280851E-02       2    2    1         0.1689841965E+00      0.4640265425E+00
          0                 2           2             2    2     1      -0.3147050320E-03       2    2    1        -0.1689844808E-01      0.4613312208E-01
          0                 3           1             2    2     1       0.2143024171E-04       2    2    1         0.1182891598E-02      0.3204696499E-02

    ------------------------------------------------
       NWT REQUIRED            3 OUTER ITERATIONS 
       AND A TOTAL OF          5 INNER ITERATIONS.
    ------------------------------------------------

 NO OUTPUT CONTROL FOR STRESS PERIOD    3   TIME STEP    6
 
 SOLVING FOR HEAD 
                                                   Max.-Head-Change                         Max.-Flux-Residual
  Residual-Control   Outer-Iter.   Inner-Iter.     Column Row Layer    Maximum-Head-Change  Column Row Layer    Maximum-Flux-Residual          L2-NORM 
          0                 1           2             2    2     1       0.3213768742E-02       2    2    1         0.1678531209E+00      0.4544395675E+00
          0                 2           2             2    2     1      -0.3126124822E-03       2    2    1        -0.1678533996E-01      0.4520717740E-01
          0                 3           1             2    2     1       0.2128774736E-04       2    2    1         0.1174974052E-02      0.3142849220E-02

    ------------------------------------------------
       NWT REQUIRED            3 OUTER ITERATIONS 
       AND A TOTAL OF          5 INNER ITERATIONS.
    ------------------------------------------------

 NO OUTPUT CONTROL FOR STRESS PERIOD    3   TIME STEP    7
 
 SOLVING FOR HEAD 
                                                   Max.-Head-Change                         Max.-Flux-Residual
  Residual-Control   Outer-Iter.   Inner-Iter.     Column Row Layer    Maximum-Head-Change  Column Row Layer    Maximum-Flux-Residual          L2-NORM 
          0                 1           2             2    2     1       0.3192554582E-02       2    2    1         0.1667377406E+00      0.4457937575E+00
          0                 2           2             2    2     1      -0.3105489156E-03       2    2    1        -0.1667380143E-01      0.4437312582E-01
          0                 3           1             2    2     1       0.2114722592E-04       2    2    1         0.1167166361E-02      0.3087989836E-02

    ------------------------------------------------
       NWT REQUIRED            3 OUTER ITERATIONS 
       AND A TOTAL OF          5 INNER ITERATIONS.
    ------------------------------------------------

 NO OUTPUT CONTROL FOR STRESS PERIOD    3   TIME STEP    8
 
 SOLVING FOR HEAD 
                                                   Max.-Head-Change                         Max.-Flux-Residual
  Residual-Control   Outer-Iter.   Inner-Iter.     Column Row Layer    Maximum-Head-Change  Column Row Layer    Maximum-Flux-Residual          L2-NORM 
          0                 1           2             2    2     1       0.3171548839E-02       2    2    1         0.1656333726E+00      0.4379820131E+00
          0                 2           2             2    2     1      -0.3085056218E-03       2    2    1        -0.1656336413E-01      0.4361531313E-01
          0                 3           1             2    2     1       0.2100808546E-04       2    2    1         0.1159435746E-02      0.3036168713E-02

    ------------------------------------------------
       NWT REQUIRED            3 OUTER ITERATIONS 
       AND A TOTAL OF          5 INNER ITERATIONS.
    ------------------------------------------------

 NO OUTPUT CONTROL FOR STRESS PERIOD    3   TIME STEP    9
 
 SOLVING FOR HEAD 
                                                   Max.-Head-Change                         Max.-Flux-Residual
  Residual-Control   Outer-Iter.   Inner-Iter.     Column Row Layer    Maximum-Head-Change  Column Row Layer    Maximum-Flux-Residual          L2-NORM 
          0                 1           2             2    2     1       0.3150918025E-02       2    2    1         0.1645486827E+00      0.4309014473E+00
          0                 2           2             2    2     1      -0.3064987986E-03       2    2    1        -0.1645489464E-01      0.4292970047E-01
          0                 3           1             2    2     1       0.2087142819E-04       2    2    1         0.1151842872E-02      0.2990345713E-02

    ------------------------------------------------
       NWT REQUIRED            3 OUTER ITERATIONS 
       AND A TOTAL OF          5 INNER ITERATIONS.
    ------------------------------------------------

 NO OUTPUT CONTROL FOR STRESS PERIOD    3   TIME STEP   10
 
 SOLVING FOR HEAD 
                                                   Max.-Head-Change                         Max.-Flux-Residual
  Residual-Control   Outer-Iter.   Inner-Iter.     Column Row Layer    Maximum-Head-Change  Column Row Layer    Maximum-Flux-Residual          L2-NORM 
          0                 1           2             2    2     1       0.3130486817E-02       2    2    1         0.1634745604E+00      0.4244596632E+00
          0                 2           2             2    2     1      -0.3045113916E-03       2    2    1        -0.1634748192E-01      0.4230497152E-01
          0                 3           1             2    2     1       0.2073609344E-04       2    2    1         0.1144323989E-02      0.2948688901E-02

    ------------------------------------------------
       NWT REQUIRED            3 OUTER ITERATIONS 
       AND A TOTAL OF          5 INNER ITERATIONS.
    ------------------------------------------------

 NO OUTPUT CONTROL FOR STRESS PERIOD    3   TIME STEP   11
 
 SOLVING FOR HEAD 
                                                   Max.-Head-Change                         Max.-Flux-Residual
  Residual-Control   Outer-Iter.   Inner-Iter.     Column Row Layer    Maximum-Head-Change  Column Row Layer    Maximum-Flux-Residual          L2-NORM 
          0                 1           2             2    2     1       0.3110421577E-02       2    2    1         0.1624196598E+00      0.4185889141E+00
          0                 2           2             2    2     1      -0.3025595840E-03       2    2    1        -0.1624199138E-01      0.4173522698E-01
          0                 3           1             2    2     1       0.2060318246E-04       2    2    1         0.1136939658E-02      0.2910188975E-02

    ------------------------------------------------
       NWT REQUIRED            3 OUTER ITERATIONS 
       AND A TOTAL OF          5 INNER ITERATIONS.
    ------------------------------------------------

 NO OUTPUT CONTROL FOR STRESS PERIOD    3   TIME STEP   12
 
 SOLVING FOR HEAD 
                                                   Max.-Head-Change                         Max.-Flux-Residual
  Residual-Control   Outer-Iter.   Inner-Iter.     Column Row Layer    Maximum-Head-Change  Column Row Layer    Maximum-Flux-Residual          L2-NORM 
          0                 1           2             2    2     1       0.3090547437E-02       2    2    1         0.1613748618E+00      0.4132170528E+00
          0                 2           2             2    2     1      -0.3006263653E-03       2    2    1        -0.1613751113E-01      0.4121296719E-01
          0                 3           1             2    2     1       0.2047153721E-04       2    2    1         0.1129626030E-02      0.2874981966E-02

    ------------------------------------------------
       NWT REQUIRED            3 OUTER ITERATIONS 
       AND A TOTAL OF          5 INNER ITERATIONS.
    ------------------------------------------------

 NO OUTPUT CONTROL FOR STRESS PERIOD    3   TIME STEP   13
 
 SOLVING FOR HEAD 
                                                   Max.-Head-Change                         Max.-Flux-Residual
  Residual-Control   Outer-Iter.   Inner-Iter.     Column Row Layer    Maximum-Head-Change  Column Row Layer    Maximum-Flux-Residual          L2-NORM 
          0                 1           2             2    2     1       0.3070945672E-02       2    2    1         0.1603444083E+00      0.4082878642E+00
          0                 2           2             2    2     1      -0.2987196410E-03       2    2    1        -0.1603446533E-01      0.4073316193E-01
          0                 3           1             2    2     1       0.2034169636E-04       2    2    1         0.1122412824E-02      0.2842122409E-02

    ------------------------------------------------
       NWT REQUIRED            3 OUTER ITERATIONS 
       AND A TOTAL OF          5 INNER ITERATIONS.
    ------------------------------------------------

 NO OUTPUT CONTROL FOR STRESS PERIOD    3   TIME STEP   14
 
 SOLVING FOR HEAD 
                                                   Max.-Head-Change                         Max.-Flux-Residual
  Residual-Control   Outer-Iter.   Inner-Iter.     Column Row Layer    Maximum-Head-Change  Column Row Layer    Maximum-Flux-Residual          L2-NORM 
          0                 1           2             2    2     1       0.3051611998E-02       2    2    1         0.1593280771E+00      0.4037432855E+00
          0                 2           2             2    2     1      -0.2968389952E-03       2    2    1        -0.1593283178E-01      0.4029055436E-01
          0                 3           1             2    2     1       0.2021363175E-04       2    2    1         0.1115298474E-02      0.2812665501E-02

    ------------------------------------------------
       NWT REQUIRED            3 OUTER ITERATIONS 
       AND A TOTAL OF          5 INNER ITERATIONS.
    ------------------------------------------------

 NO OUTPUT CONTROL FOR STRESS PERIOD    3   TIME STEP   15
 
 SOLVING FOR HEAD 
                                                   Max.-Head-Change                         Max.-Flux-Residual
  Residual-Control   Outer-Iter.   Inner-Iter.     Column Row Layer    Maximum-Head-Change  Column Row Layer    Maximum-Flux-Residual          L2-NORM 
          0                 1           2             2    2     1       0.3032542649E-02       2    2    1         0.1583256463E+00      0.3995411777E+00
          0                 2           2             2    2     1      -0.2949840610E-03       2    2    1        -0.1583258826E-01      0.3988016463E-01
          0                 3           1             2    2     1       0.2008731757E-04       2    2    1         0.1108281427E-02      0.2784963619E-02

    ------------------------------------------------
       NWT REQUIRED            3 OUTER ITERATIONS 
       AND A TOTAL OF          5 INNER ITERATIONS.
    ------------------------------------------------

 NO OUTPUT CONTROL FOR STRESS PERIOD    3   TIME STEP   16
 
 SOLVING FOR HEAD 
                                                   Max.-Head-Change                         Max.-Flux-Residual
  Residual-Control   Outer-Iter.   Inner-Iter.     Column Row Layer    Maximum-Head-Change  Column Row Layer    Maximum-Flux-Residual          L2-NORM 
          0                 1           2             2    2     1       0.3013648210E-02       2    2    1         0.1573324837E+00      0.3956471269E+00
          0                 2           2             2    2     1      -0.2931461416E-03       2    2    1        -0.1573327161E-01      0.3949936634E-01
          0                 3           1             2    2     1       0.1996216214E-04       2    2    1         0.1101329276E-02      0.2758858441E-02

    ------------------------------------------------
       NWT REQUIRED            3 OUTER ITERATIONS 
       AND A TOTAL OF          5 INNER ITERATIONS.
    ------------------------------------------------

 NO OUTPUT CONTROL FOR STRESS PERIOD    3   TIME STEP   17
 
 SOLVING FOR HEAD 
                                                   Max.-Head-Change                         Max.-Flux-Residual
  Residual-Control   Outer-Iter.   Inner-Iter.     Column Row Layer    Maximum-Head-Change  Column Row Layer    Maximum-Flux-Residual          L2-NORM 
          0                 1           2             2    2     1       0.2995086685E-02       2    2    1         0.1563567839E+00      0.3920195151E+00
          0                 2           2             2    2     1      -0.2913406047E-03       2    2    1        -0.1563570120E-01      0.3914490014E-01
          0                 3           1             2    2     1       0.1983921179E-04       2    2    1         0.1094499337E-02      0.2735070227E-02

    ------------------------------------------------
       NWT REQUIRED            3 OUTER ITERATIONS 
       AND A TOTAL OF          5 INNER ITERATIONS.
    ------------------------------------------------

 NO OUTPUT CONTROL FOR STRESS PERIOD    3   TIME STEP   18
 
 SOLVING FOR HEAD 
                                                   Max.-Head-Change                         Max.-Flux-Residual
  Residual-Control   Outer-Iter.   Inner-Iter.     Column Row Layer    Maximum-Head-Change  Column Row Layer    Maximum-Flux-Residual          L2-NORM 
          0                 1           2             2    2     1       0.2976701687E-02       2    2    1         0.1553904308E+00      0.3886479529E+00
          0                 2           2             2    2     1      -0.2895522397E-03       2    2    1        -0.1553906548E-01      0.3881409150E-01
          0                 3           1             2    2     1       0.1971743109E-04       2    2    1         0.1087734852E-02      0.2712477527E-02

    ------------------------------------------------
       NWT REQUIRED            3 OUTER ITERATIONS 
       AND A TOTAL OF          5 INNER ITERATIONS.
    ------------------------------------------------

 NO OUTPUT CONTROL FOR STRESS PERIOD    3   TIME STEP   19
 
 SOLVING FOR HEAD 
                                                   Max.-Head-Change                         Max.-Flux-Residual
  Residual-Control   Outer-Iter.   Inner-Iter.     Column Row Layer    Maximum-Head-Change  Column Row Layer    Maximum-Flux-Residual          L2-NORM 
          0                 1           2             2    2     1       0.2958565986E-02       2    2    1         0.1544371877E+00      0.3854777616E+00
          0                 2           2             2    2     1      -0.2877881247E-03       2    2    1        -0.1544374080E-01      0.3850192949E-01
          0                 3           1             2    2     1       0.1959730141E-04       2    2    1         0.1081062114E-02      0.2689673866E-02

    ------------------------------------------------
       NWT REQUIRED            3 OUTER ITERATIONS 
       AND A TOTAL OF          5 INNER ITERATIONS.
    ------------------------------------------------

 NO OUTPUT CONTROL FOR STRESS PERIOD    3   TIME STEP   20
 
 SOLVING FOR HEAD 
                                                   Max.-Head-Change                         Max.-Flux-Residual
  Residual-Control   Outer-Iter.   Inner-Iter.     Column Row Layer    Maximum-Head-Change  Column Row Layer    Maximum-Flux-Residual          L2-NORM 
          0                 1           2             2    2     1       0.2940675688E-02       2    2    1         0.1534968704E+00      0.3824967673E+00
          0                 2           2             2    2     1      -0.2860478810E-03       2    2    1        -0.1534970870E-01      0.3821053852E-01
          0                 3           1             2    2     1       0.1947879698E-04       2    2    1         0.1074479866E-02      0.2671363531E-02

    ------------------------------------------------
       NWT REQUIRED            3 OUTER ITERATIONS 
       AND A TOTAL OF          5 INNER ITERATIONS.
    ------------------------------------------------

 NO OUTPUT CONTROL FOR STRESS PERIOD    3   TIME STEP   21
 
 SOLVING FOR HEAD 
                                                   Max.-Head-Change                         Max.-Flux-Residual
  Residual-Control   Outer-Iter.   Inner-Iter.     Column Row Layer    Maximum-Head-Change  Column Row Layer    Maximum-Flux-Residual          L2-NORM 
          0                 1           2             2    2     1       0.2923027038E-02       2    2    1         0.1525692770E+00      0.3797026233E+00
          0                 2           2             2    2     1      -0.2843311427E-03       2    2    1        -0.1525694898E-01      0.3793538048E-01
          0                 3           1             2    2     1       0.1936189363E-04       2    2    1         0.1067986683E-02      0.2652299631E-02

    ------------------------------------------------
       NWT REQUIRED            3 OUTER ITERATIONS 
       AND A TOTAL OF          5 INNER ITERATIONS.
    ------------------------------------------------

 NO OUTPUT CONTROL FOR STRESS PERIOD    3   TIME STEP   22
 
 SOLVING FOR HEAD 
                                                   Max.-Head-Change                         Max.-Flux-Residual
  Residual-Control   Outer-Iter.   Inner-Iter.     Column Row Layer    Maximum-Head-Change  Column Row Layer    Maximum-Flux-Residual          L2-NORM 
          0                 1           2             2    2     1       0.2905615958E-02       2    2    1         0.1516542128E+00      0.3770550096E+00
          0                 2           2             2    2     1      -0.2826375138E-03       2    2    1        -0.1516544218E-01      0.3767414756E-01
          0                 3           1             2    2     1       0.1924656393E-04       2    2    1         0.1061581209E-02      0.2634458299E-02

    ------------------------------------------------
       NWT REQUIRED            3 OUTER ITERATIONS 
       AND A TOTAL OF          5 INNER ITERATIONS.
    ------------------------------------------------

 NO OUTPUT CONTROL FOR STRESS PERIOD    3   TIME STEP   23
 
 SOLVING FOR HEAD 
                                                   Max.-Head-Change                         Max.-Flux-Residual
  Residual-Control   Outer-Iter.   Inner-Iter.     Column Row Layer    Maximum-Head-Change  Column Row Layer    Maximum-Flux-Residual          L2-NORM 
          0                 1           2             2    2     1       0.2888354939E-02       2    2    1         0.1507470290E+00      0.3745454168E+00
          0                 2           2             2    2     1      -0.2809584821E-03       2    2    1        -0.1507472346E-01      0.3742728485E-01
          0                 3           1             2    2     1       0.1913222826E-04       2    2    1         0.1055230902E-02      0.2617520590E-02

    ------------------------------------------------
       NWT REQUIRED            3 OUTER ITERATIONS 
       AND A TOTAL OF          5 INNER ITERATIONS.
    ------------------------------------------------

 NO OUTPUT CONTROL FOR STRESS PERIOD    3   TIME STEP   24
 
 SOLVING FOR HEAD 
                                                   Max.-Head-Change                         Max.-Flux-Residual
  Residual-Control   Outer-Iter.   Inner-Iter.     Column Row Layer    Maximum-Head-Change  Column Row Layer    Maximum-Flux-Residual          L2-NORM 
          0                 1           2             2    2     1       0.2871410514E-02       2    2    1         0.1498565005E+00      0.3721681515E+00
          0                 2           2             2    2     1      -0.2793102462E-03       2    2    1        -0.1498567025E-01      0.3719261828E-01
          0                 3           1             2    2     1       0.1901998904E-04       2    2    1         0.1048997171E-02      0.2601223372E-02

    ------------------------------------------------
       NWT REQUIRED            3 OUTER ITERATIONS 
       AND A TOTAL OF          5 INNER ITERATIONS.
    ------------------------------------------------

 NO OUTPUT CONTROL FOR STRESS PERIOD    3   TIME STEP   25
 
 SOLVING FOR HEAD 
                                                   Max.-Head-Change                         Max.-Flux-Residual
  Residual-Control   Outer-Iter.   Inner-Iter.     Column Row Layer    Maximum-Head-Change  Column Row Layer    Maximum-Flux-Residual          L2-NORM 
          0                 1           2             2    2     1       0.2854608264E-02       2    2    1         0.1489735121E+00      0.3699009105E+00
          0                 2           2             2    2     1      -0.2776758406E-03       2    2    1        -0.1489737109E-01      0.3696829214E-01
          0                 3           1             2    2     1       0.1890869248E-04       2    2    1         0.1042816234E-02      0.2585727980E-02

    ------------------------------------------------
       NWT REQUIRED            3 OUTER ITERATIONS 
       AND A TOTAL OF          5 INNER ITERATIONS.
    ------------------------------------------------

 NO OUTPUT CONTROL FOR STRESS PERIOD    3   TIME STEP   26
 
 SOLVING FOR HEAD 
                                                   Max.-Head-Change                         Max.-Flux-Residual
  Residual-Control   Outer-Iter.   Inner-Iter.     Column Row Layer    Maximum-Head-Change  Column Row Layer    Maximum-Flux-Residual          L2-NORM 
          0                 1           2             2    2     1       0.2838115570E-02       2    2    1         0.1481067704E+00      0.3677400383E+00
          0                 2           2             2    2     1      -0.2760715463E-03       2    2    1        -0.1481069658E-01      0.3675480245E-01
          0                 3           1             2    2     1       0.1879944623E-04       2    2    1         0.1036749030E-02      0.2571036846E-02

    ------------------------------------------------
       NWT REQUIRED            3 OUTER ITERATIONS 
       AND A TOTAL OF          5 INNER ITERATIONS.
    ------------------------------------------------

 NO OUTPUT CONTROL FOR STRESS PERIOD    3   TIME STEP   27
 
 SOLVING FOR HEAD 
                                                   Max.-Head-Change                         Max.-Flux-Residual
  Residual-Control   Outer-Iter.   Inner-Iter.     Column Row Layer    Maximum-Head-Change  Column Row Layer    Maximum-Flux-Residual          L2-NORM 
          0                 1           2             2    2     1       0.2821758846E-02       2    2    1         0.1472472037E+00      0.3656790175E+00
          0                 2           2             2    2     1      -0.2744804784E-03       2    2    1        -0.1472473959E-01      0.3655086991E-01
          0                 3           1             2    2     1       0.1869110052E-04       2    2    1         0.1030732055E-02      0.2557093291E-02

    ------------------------------------------------
       NWT REQUIRED            3 OUTER ITERATIONS 
       AND A TOTAL OF          5 INNER ITERATIONS.
    ------------------------------------------------

 NO OUTPUT CONTROL FOR STRESS PERIOD    3   TIME STEP   28
 
 SOLVING FOR HEAD 
                                                   Max.-Head-Change                         Max.-Flux-Residual
  Residual-Control   Outer-Iter.   Inner-Iter.     Column Row Layer    Maximum-Head-Change  Column Row Layer    Maximum-Flux-Residual          L2-NORM 
          0                 1           2             2    2     1       0.2805619931E-02       2    2    1         0.1463991244E+00      0.3637082943E+00
          0                 2           2             2    2     1      -0.2729105967E-03       2    2    1        -0.1463993132E-01      0.3635570891E-01
          0                 3           1             2    2     1       0.1858419710E-04       2    2    1         0.1024795464E-02      0.2543539986E-02

    ------------------------------------------------
       NWT REQUIRED            3 OUTER ITERATIONS 
       AND A TOTAL OF          5 INNER ITERATIONS.
    ------------------------------------------------

 NO OUTPUT CONTROL FOR STRESS PERIOD    3   TIME STEP   29
 
 SOLVING FOR HEAD 
                                                   Max.-Head-Change                         Max.-Flux-Residual
  Residual-Control   Outer-Iter.   Inner-Iter.     Column Row Layer    Maximum-Head-Change  Column Row Layer    Maximum-Flux-Residual          L2-NORM 
          0                 1           2             4   13     1       0.4709136809E-02       4   13    1         0.2696369064E+00      0.6974167750E+00
          0                 2           2             2    2     1      -0.4535412924E-03       4   13    1        -0.2668102261E-01      0.6881940714E-01
          0                 3           1             2    2     1       0.3088447269E-04       4   13    1         0.1840059044E-02      0.4731509499E-02

    ------------------------------------------------
       NWT REQUIRED            3 OUTER ITERATIONS 
       AND A TOTAL OF          5 INNER ITERATIONS.
    ------------------------------------------------

 NO OUTPUT CONTROL FOR STRESS PERIOD    3   TIME STEP   30



 STREAM LISTING     PERIOD      3   STEP       30

 LAYER ROW COL. STREAM  RCH.  FLOW INTO     FLOW TO   FLOW OUT OF   OVRLND.     DIRECT     STREAM       STREAM     STREAM     STREAM   STREAMBED  STREAMBED
                SEG.NO.  NO.  STRM. RCH.    AQUIFER    STRM. RCH.    RUNOFF     PRECIP       ET          HEAD       DEPTH      WIDTH   CONDCTNC.   GRADIENT

   1    1    1     1     1    2.7188E+01  2.5503E-01   2.6933E+01  0.000E+00  0.000E+00  0.000E+00  1.09426E+03  1.210E+00  1.346E+01  6.058E-02  1.403E+00
   1    2    2     1     2    2.6933E+01  3.9447E-01   2.6539E+01  0.000E+00  0.000E+00  0.000E+00  1.08926E+03  1.205E+00  1.340E+01  9.380E-02  1.402E+00
   1    3    3     1     3    2.6539E+01  3.3594E-01   2.6203E+01  0.000E+00  0.000E+00  0.000E+00  1.08362E+03  1.200E+00  1.333E+01  7.998E-02  1.400E+00
   1    3    4     1     4    2.6203E+01  3.0895E-01   2.5894E+01  0.000E+00  0.000E+00  0.000E+00  1.07860E+03  1.196E+00  1.327E+01  7.364E-02  1.399E+00
   1    4    5     2     1    2.3894E+01  3.2529E-01   2.3568E+01  0.000E+00  0.000E+00  0.000E+00  1.07310E+03  1.170E+00  1.200E+01  7.800E-02  1.390E+00
   1    5    6     2     2    2.3568E+01  2.4971E-01   2.3319E+01  0.000E+00  0.000E+00  0.000E+00  1.06767E+03  1.162E+00  1.200E+01  6.000E-02  1.387E+00
   1    6    6     2     3    2.3319E+01  2.4927E-01   2.3069E+01  0.000E+00  0.000E+00  0.000E+00  1.06295E+03  1.154E+00  1.200E+01  6.000E-02  1.385E+00
   1    7    6     2     4    2.3069E+01  2.4882E-01   2.2821E+01  0.000E+00  0.000E+00  0.000E+00  1.05822E+03  1.147E+00  1.200E+01  6.000E-02  1.382E+00
   1    8    6     2     5    2.2821E+01  2.4837E-01   2.2572E+01  0.000E+00  0.000E+00  0.000E+00  1.05350E+03  1.140E+00  1.200E+01  6.000E-02  1.380E+00
   1    3    5     3     1    2.0000E+00  2.8252E-01   1.7175E+00  0.000E+00  0.000E+00  0.000E+00  1.07555E+03  1.909E+00  9.636E+00  7.227E-02  1.955E+00
   1    3    6     3     2    1.7175E+00  2.4905E-01   1.4684E+00  0.000E+00  0.000E+00  0.000E+00  1.07264E+03  1.727E+00  8.909E+00  6.682E-02  1.864E+00
   1    3    7     3     3    1.4684E+00  1.9718E-01   1.2712E+00  0.000E+00  0.000E+00  0.000E+00  1.06987E+03  1.555E+00  8.218E+00  5.547E-02  1.777E+00
   1    4    8     3     4    1.2712E+00  2.2567E-01   1.0456E+00  0.000E+00  0.000E+00  0.000E+00  1.06682E+03  1.364E+00  7.455E+00  6.709E-02  1.682E+00
   1    5    8     3     5    1.0456E+00  1.5790E-01   8.8768E-01  0.000E+00  0.000E+00  0.000E+00  1.06362E+03  1.164E+00  6.655E+00  4.991E-02  1.582E+00
   1    6    8     3     6    8.8768E-01  5.5980E-02   8.3170E-01  0.000E+00  0.000E+00  0.000E+00  1.06158E+03  1.036E+00  6.145E+00  1.844E-02  1.518E+00
   1    5   10     4     1    1.0000E+01  9.0919E-02   9.9091E+00  0.000E+00  0.000E+00  0.000E+00  1.07836E+03  6.368E-01  1.000E+01  2.500E-02  1.212E+00
   1    5    9     4     2    9.9091E+00  1.8158E-01   9.7275E+00  0.000E+00  0.000E+00  0.000E+00  1.07154E+03  6.315E-01  1.000E+01  5.000E-02  1.211E+00
   1    6    8     4     3    9.7275E+00  1.2689E-01   9.6006E+00  0.000E+00  0.000E+00  0.000E+00  1.06381E+03  6.256E-01  1.000E+01  3.500E-02  1.209E+00
   1    6    8     5     1    1.0432E+01  2.2686E-01   1.0205E+01  0.000E+00  0.000E+00  0.000E+00  1.05868E+03  6.790E-01  1.542E+01  6.166E-02  1.226E+00
   1    7    7     5     2    1.0205E+01  2.7894E-01   9.9265E+00  0.000E+00  0.000E+00  0.000E+00  1.05417E+03  6.732E-01  1.519E+01  7.594E-02  1.224E+00
   1    8    7     5     3    9.9265E+00  1.9221E-01   9.7343E+00  0.000E+00  0.000E+00  0.000E+00  1.04992E+03  6.676E-01  1.497E+01  5.241E-02  1.223E+00
   1    8    6     5     4    9.7343E+00  1.3577E-01   9.5985E+00  0.000E+00  0.000E+00  0.000E+00  1.04691E+03  6.637E-01  1.482E+01  3.706E-02  1.221E+00
   1    9    6     6     1    3.2171E+01  2.6502E-01   3.1906E+01  0.000E+00  0.000E+00  0.000E+00  1.04414E+03  1.417E+00  1.200E+01  6.000E-02  1.472E+00
   1   10    7     6     2    3.1906E+01  2.6460E-01   3.1641E+01  0.000E+00  0.000E+00  0.000E+00  1.03959E+03  1.410E+00  1.200E+01  6.000E-02  1.470E+00
   1   11    7     6     3    3.1641E+01  2.6418E-01   3.1377E+01  0.000E+00  0.000E+00  0.000E+00  1.03504E+03  1.403E+00  1.200E+01  6.000E-02  1.468E+00
   1   12    7     6     4    3.1377E+01  2.6375E-01   3.1113E+01  0.000E+00  0.000E+00  0.000E+00  1.03049E+03  1.396E+00  1.200E+01  6.000E-02  1.465E+00
   1   13    7     6     5    3.1113E+01  1.0995E-02   3.1102E+01  0.000E+00  0.000E+00  0.000E+00  1.02730E+03  1.392E+00  1.200E+01  2.400E-02  1.527E-01
   1   14    9     7     1    1.5000E+02  1.3665E+00   1.4863E+02  0.000E+00  0.000E+00  0.000E+00  1.03987E+03  2.288E+00  5.529E+01  5.593E-01  8.144E-01
   1   13    8     7     2    1.4863E+02  1.9191E+00   1.4671E+02  0.000E+00  0.000E+00  0.000E+00  1.03478E+03  2.279E+00  5.526E+01  6.148E-01  1.041E+00
   1   13    7     7     3    1.4671E+02  1.5891E+00   1.4513E+02  0.000E+00  0.000E+00  0.000E+00  1.02969E+03  2.270E+00  5.521E+01  5.584E-01  9.486E-01
   1   13    6     8     1    1.7623E+02  1.0561E+00   1.7517E+02  0.000E+00  0.000E+00  0.000E+00  1.02486E+03  2.989E+00  4.334E+01  4.416E-01  7.971E-01
   1   13    5     8     2    1.7517E+02  2.7870E-01   1.7489E+02  0.000E+00  0.000E+00  0.000E+00  1.01861E+03  2.985E+00  4.328E+01  4.410E-01  2.106E-01
   1   13    4     8     3    1.7489E+02 -1.9966E+00   1.7689E+02  0.000E+00  0.000E+00  0.000E+00  1.01237E+03  2.990E+00  4.336E+01  4.418E+00 -1.506E-01
   1   13    3     8     4    1.7689E+02 -3.3281E+00   1.8022E+02  0.000E+00  0.000E+00  0.000E+00  1.00613E+03  3.007E+00  4.360E+01  4.443E+00 -2.497E-01
   1   13    2     8     5    1.8022E+02 -2.3039E+00   1.8252E+02  0.000E+00  0.000E+00  0.000E+00  9.99900E+02  3.025E+00  4.386E+01  4.469E+00 -1.718E-01
   1   13    1     8     6    1.8252E+02 -1.8174E+00   1.8434E+02  0.000E+00  0.000E+00  0.000E+00  9.94913E+02  3.038E+00  4.405E+01  2.693E+00 -2.250E-01
   1    8    6     9     1    0.0000E+00  0.0000E+00   0.0000E+00  0.000E+00  0.000E+00  0.000E+00  1.07875E+03  0.000E+00  4.000E+00  0.000E+00  1.000E+00
   1    8    5     9     2    0.0000E+00  0.0000E+00   0.0000E+00  0.000E+00  0.000E+00  0.000E+00  1.07825E+03  0.000E+00  4.000E+00  0.000E+00  1.000E+00





UNSATURATED ZONE PACKAGE VOLUMETRIC BUDGET FOR  TIME STEP    30 STRESS PERIOD    3
  ------------------------------------------------------------------------------



     CUMULATIVE VOLUMES      L**3       RATES FOR THIS TIME STEP      L**3/T
     ------------------                 ------------------------

           IN:                                      IN:
           ---                                      ---
        INFILTRATION =     4531073.7455          INFILTRATION =           0.8475

          OUT:                                     OUT:
          ----                                     ----
              UZF ET =     3944985.5897                UZF ET =           0.7500
        UZF RECHARGE =       73224.0000          UZF RECHARGE =       0.0000E+00

            IN - OUT =      512864.1558              IN - OUT =       9.7500E-02

          STORAGE:                                 STORAGE:
          --------                                 --------
      STORAGE CHANGE =      512864.1946        STORAGE CHANGE =       9.7500E-02

 PERCENT DISCREPANCY IS DIFFERENCE BETWEEN IN-OUT MINUS CHANGE IN STORAGE
 DIVIDED BY THE AVERAGE OF IN AND OUT TIMES 100

 PERCENT DISCREPANCY =          -0.00     PERCENT DISCREPANCY =           0.00






1
  VOLUMETRIC BUDGET FOR AGRICULTURAL FIELDS AT  END OF TIME STEP   30, STRESS PERIOD   3
  ------------------------------------------------------------------------------

     CUMULATIVE VOLUMES      L**3       RATES FOR THIS TIME STEP      L**3/T
     ------------------                 ------------------------

           IN:                                      IN:
           ---                                      ---
               AG WELLS  =           0.0000                 AG WELLS  =           0.0000
      DIVERSION SEGMENTS =           0.0000        DIVERSION SEGMENTS =           0.0000
       IRRIGATION PONDS  =           0.0000         IRRIGATION PONDS  =           0.0000
           GW IRRIGATION =           0.0000             GW IRRIGATION =           0.0000
           SW IRRIGATION =           0.0000             SW IRRIGATION =           0.0000
        SYSTEM LOSSES GW =           0.0000          SYSTEM LOSSES GW =           0.0000
        SYSTEM LOSSES SW =           0.0000          SYSTEM LOSSES SW =           0.0000

                TOTAL IN =           0.0000                  TOTAL IN =           0.0000

          OUT:                                     OUT:
          ----                                     ----
               AG WELLS  =           0.0000                 AG WELLS  =           0.0000
      DIVERSION SEGMENTS =           0.0000        DIVERSION SEGMENTS =           0.0000
       IRRIGATION PONDS  =           0.0000         IRRIGATION PONDS  =           0.0000
           GW IRRIGATION =           0.0000             GW IRRIGATION =           0.0000
           SW IRRIGATION =           0.0000             SW IRRIGATION =           0.0000
        SYSTEM LOSSES GW =           0.0000          SYSTEM LOSSES GW =           0.0000
        SYSTEM LOSSES SW =           0.0000          SYSTEM LOSSES SW =           0.0000

               TOTAL OUT =           0.0000                 TOTAL OUT =           0.0000

                IN - OUT =           0.0000                  IN - OUT =           0.0000

     PERCENT DISCREPANCY =           0.00         PERCENT DISCREPANCY =           0.00



1
  VOLUMETRIC BUDGET FOR ENTIRE MODEL AT END OF TIME STEP   30, STRESS PERIOD   3
  ------------------------------------------------------------------------------

     CUMULATIVE VOLUMES      L**3       RATES FOR THIS TIME STEP      L**3/T
     ------------------                 ------------------------

           IN:                                      IN:
           ---                                      ---
             STORAGE     =     3101464.7500               STORAGE     =           0.4931
       CONSTANT HEAD     =           0.0000         CONSTANT HEAD     =           0.0000
     HEAD DEP BOUNDS     =     1538702.5000       HEAD DEP BOUNDS     =           0.2878
      STREAM LEAKAGE     =    60993756.0000        STREAM LEAKAGE     =          12.2952
        UZF RECHARGE     =       73223.9531          UZF RECHARGE     =           0.0000
               GW ET     =           0.0000                 GW ET     =           0.0000
     SURFACE LEAKAGE     =           0.0000       SURFACE LEAKAGE     =           0.0000
           AG WELLS      =           0.0000             AG WELLS      =           0.0000

                TOTAL IN =    65707148.0000                  TOTAL IN =          13.0762

          OUT:                                     OUT:
          ----                                     ----
             STORAGE     =     9831364.0000               STORAGE     =           3.3427
       CONSTANT HEAD     =           0.0000         CONSTANT HEAD     =           0.0000
     HEAD DEP BOUNDS     =     1536322.6250       HEAD DEP BOUNDS     =           0.2883
      STREAM LEAKAGE     =    54341368.0000        STREAM LEAKAGE     =           9.4460
        UZF RECHARGE     =           0.0000          UZF RECHARGE     =           0.0000
               GW ET     =           0.0000                 GW ET     =           0.0000
     SURFACE LEAKAGE     =           0.0000       SURFACE LEAKAGE     =           0.0000
           AG WELLS      =           0.0000             AG WELLS      =           0.0000

               TOTAL OUT =    65709056.0000                 TOTAL OUT =          13.0770

                IN - OUT =       -1908.0000                  IN - OUT =      -8.0872E-04

     PERCENT DISCREPANCY =          -0.00         PERCENT DISCREPANCY =          -0.01






         TIME SUMMARY AT END OF TIME STEP   30 IN STRESS PERIOD    3
                    SECONDS     MINUTES      HOURS       DAYS        YEARS
                    -----------------------------------------------------------
   TIME STEP LENGTH  87667.      1461.1      24.352      1.0147     2.77799E-03
 STRESS PERIOD TIME 2.63000E+06  43833.      730.56      30.440     8.33397E-02
         TOTAL TIME 5.34640E+06  89107.      1485.1      61.880     0.16942    
1
1
                            STRESS PERIOD NO.    4, LENGTH =   2630000.    
                            -----------------------------------------------

                              NUMBER OF TIME STEPS =    30

                               MULTIPLIER FOR DELT =     1.000

                            INITIAL TIME STEP SIZE =   87666.66    

 REUSING NON-PARAMETER GHB CELLS FROM LAST STRESS PERIOD

      2 GHB CELLS

 REUSING STREAM SEGMENT DATA FROM LAST STRESS PERIOD



            AREAL INFILTRATION RATE
 READING ON UNIT   19 WITH FORMAT: (FREE)              

            1           2           3           4           5           6           7           8           9          10
 ........................................................................................................................
   1   1.0000E-10  2.0000E-10   0.000       0.000       0.000       0.000       0.000       0.000       0.000       0.000    
   2   2.0000E-10  1.0000E-10  2.0000E-10   0.000       0.000      8.0000E-10  8.0000E-10  5.0000E-10   0.000       0.000    
   3    0.000      5.0000E-10  1.0000E-10  1.0000E-10  8.0000E-10  8.0000E-10  5.0000E-10  5.0000E-10   0.000       0.000    
   4   8.0000E-10  5.0000E-10  1.0000E-10  1.0000E-10  1.0000E-10  1.0000E-10  1.0000E-10  1.0000E-10  2.0000E-10   0.000    
   5   8.0000E-10  5.0000E-10  1.0000E-10  1.0000E-10  1.0000E-10  1.0000E-10  1.0000E-10  1.0000E-10  1.0000E-10  1.0000E-10
   6   8.0000E-10  5.0000E-10  5.0000E-10  2.0000E-10  2.0000E-10  1.0000E-10  1.0000E-10  1.0000E-10  1.0000E-10  5.0000E-10
   7   8.0000E-10  5.0000E-10  5.0000E-10  2.0000E-10  2.0000E-10  1.0000E-10  1.0000E-10  2.0000E-10  2.0000E-10   0.000    
   8    0.000      5.0000E-10  5.0000E-10  2.0000E-10  2.0000E-10  1.0000E-10  1.0000E-10  2.0000E-10  5.0000E-10   0.000    
   9    0.000      5.0000E-10  5.0000E-10  2.0000E-10  2.0000E-10  1.0000E-10  1.0000E-10  2.0000E-10  5.0000E-10   0.000    
  10    0.000      5.0000E-10  5.0000E-10  2.0000E-10  2.0000E-10  1.0000E-10  1.0000E-10  2.0000E-10  5.0000E-10  8.0000E-10
  11    0.000      1.0000E-10  1.0000E-10  1.0000E-10  1.0000E-10  1.0000E-10  1.0000E-10  2.0000E-10  5.0000E-10   0.000    
  12   1.0000E-10  1.0000E-10  1.0000E-10  1.0000E-10  1.0000E-10  1.0000E-10  1.0000E-10  1.0000E-10  2.0000E-10   0.000    
  13   1.0000E-10  1.0000E-10  2.0000E-10  2.0000E-10  2.0000E-10  2.0000E-10  2.0000E-10  1.0000E-10  1.0000E-10   0.000    
  14    0.000      2.0000E-10  5.0000E-10  5.0000E-10  5.0000E-10  5.0000E-10  5.0000E-10  2.0000E-10  1.0000E-10   0.000    
  15    0.000       0.000      8.0000E-10  8.0000E-10  8.0000E-10  8.0000E-10   0.000       0.000       0.000       0.000    

                  ET RATE =  5.000000E-10

 USING ET EXTINCTION DEPTH FROM PREVIOUS STRESS PERIOD. CURRENT PERIOD IS:       4

 USING EXTINCTION WATER CONTENT FROM PREVIOUS STRESS PERIOD. CURRENT PERIOD IS:       4

 USING AIR ENTRY PRESSURE FROM PREVIOUS STRESS PERIOD. CURRENT PERIOD IS:       4

 USING ROOT PRESSURE HEAD FROM PREVIOUS STRESS PERIOD. CURRENT PERIOD IS:       4

 USING ROOT ACTIVITY FROM PREVIOUS STRESS PERIOD. CURRENT PERIOD IS:       4

 PROCESSING AG STRESS PERIOD DATA

 READING AG STRESS PERIOD DATA

 READING IRRIGATION SEGMENT

 READING IRRIGATION WELL

 READING SUPPLEMENTAL WELL

 NO IRRPOND OR REUSING IRRPOND DATA FROM LAST STRESS PERIOD

 END PROCESSING AG STRESS PERIOD DATA OPTIONS
 
 SOLVING FOR HEAD 
                                                   Max.-Head-Change                         Max.-Flux-Residual
  Residual-Control   Outer-Iter.   Inner-Iter.     Column Row Layer    Maximum-Head-Change  Column Row Layer    Maximum-Flux-Residual          L2-NORM 
          0                 1           2             4   13     1       0.4940254060E-02       4   13    1         0.2828335364E+00      0.7295639810E+00
          0                 2           2             4   13     1      -0.4754262552E-03       4   13    1        -0.2798492593E-01      0.7196015433E-01
          0                 3           1             2    2     1       0.3214211446E-04       4   13    1         0.1930053891E-02      0.4944999565E-02

    ------------------------------------------------
       NWT REQUIRED            3 OUTER ITERATIONS 
       AND A TOTAL OF          5 INNER ITERATIONS.
    ------------------------------------------------

 NO OUTPUT CONTROL FOR STRESS PERIOD    4   TIME STEP    1
 
 SOLVING FOR HEAD 
                                                   Max.-Head-Change                         Max.-Flux-Residual
  Residual-Control   Outer-Iter.   Inner-Iter.     Column Row Layer    Maximum-Head-Change  Column Row Layer    Maximum-Flux-Residual          L2-NORM 
          0                 1           2             2    2     1       0.4822157583E-02       4   13    1         0.2567874525E+00      0.7019739491E+00
          0                 2           2             2    2     1      -0.4690653484E-03       4   13    1        -0.2540507498E-01      0.6931303985E-01
          0                 3           1             2    2     1       0.3194160249E-04       2    2    1         0.1762315083E-02      0.4770801368E-02

    ------------------------------------------------
       NWT REQUIRED            3 OUTER ITERATIONS 
       AND A TOTAL OF          5 INNER ITERATIONS.
    ------------------------------------------------

 NO OUTPUT CONTROL FOR STRESS PERIOD    4   TIME STEP    2
 
 SOLVING FOR HEAD 
                                                   Max.-Head-Change                         Max.-Flux-Residual
  Residual-Control   Outer-Iter.   Inner-Iter.     Column Row Layer    Maximum-Head-Change  Column Row Layer    Maximum-Flux-Residual          L2-NORM 
          0                 1           2             2    2     1       0.4792218275E-02       2    2    1         0.2501847211E+00      0.6774939908E+00
          0                 2           2             2    2     1      -0.4661530540E-03       2    2    1        -0.2501853140E-01      0.6696501458E-01
          0                 3           1             2    2     1       0.3174328639E-04       2    2    1         0.1751297400E-02      0.4614591764E-02

    ------------------------------------------------
       NWT REQUIRED            3 OUTER ITERATIONS 
       AND A TOTAL OF          5 INNER ITERATIONS.
    ------------------------------------------------

 NO OUTPUT CONTROL FOR STRESS PERIOD    4   TIME STEP    3
 
 SOLVING FOR HEAD 
                                                   Max.-Head-Change                         Max.-Flux-Residual
  Residual-Control   Outer-Iter.   Inner-Iter.     Column Row Layer    Maximum-Head-Change  Column Row Layer    Maximum-Flux-Residual          L2-NORM 
          0                 1           2             2    2     1       0.4762604938E-02       2    2    1         0.2486279630E+00      0.6557715732E+00
          0                 2           2             2    2     1      -0.4632724675E-03       2    2    1        -0.2486285453E-01      0.6488331357E-01
          0                 3           1             2    2     1       0.3154712850E-04       2    2    1         0.1740399999E-02      0.4477532787E-02

    ------------------------------------------------
       NWT REQUIRED            3 OUTER ITERATIONS 
       AND A TOTAL OF          5 INNER ITERATIONS.
    ------------------------------------------------

 NO OUTPUT CONTROL FOR STRESS PERIOD    4   TIME STEP    4
 
 SOLVING FOR HEAD 
                                                   Max.-Head-Change                         Max.-Flux-Residual
  Residual-Control   Outer-Iter.   Inner-Iter.     Column Row Layer    Maximum-Head-Change  Column Row Layer    Maximum-Flux-Residual          L2-NORM 
          0                 1           2             2    2     1       0.4733481710E-02       2    2    1         0.2470969832E+00      0.6364937839E+00
          0                 2           2             2    2     1      -0.4604395563E-03       2    2    1        -0.2470975552E-01      0.6303669227E-01
          0                 3           1             2    2     1       0.3135421848E-04       2    2    1         0.1729683089E-02      0.4356112170E-02

    ------------------------------------------------
       NWT REQUIRED            3 OUTER ITERATIONS 
       AND A TOTAL OF          5 INNER ITERATIONS.
    ------------------------------------------------

 NO OUTPUT CONTROL FOR STRESS PERIOD    4   TIME STEP    5
 
 SOLVING FOR HEAD 
                                                   Max.-Head-Change                         Max.-Flux-Residual
  Residual-Control   Outer-Iter.   Inner-Iter.     Column Row Layer    Maximum-Head-Change  Column Row Layer    Maximum-Flux-Residual          L2-NORM 
          0                 1           2             2    2     1       0.4704671723E-02       2    2    1         0.2455825377E+00      0.6193639979E+00
          0                 2           2             2    2     1      -0.4576371155E-03       2    2    1        -0.2455830999E-01      0.6139710657E-01
          0                 3           1             2    2     1       0.3116338291E-04       2    2    1         0.1719081920E-02      0.4248789101E-02

    ------------------------------------------------
       NWT REQUIRED            3 OUTER ITERATIONS 
       AND A TOTAL OF          5 INNER ITERATIONS.
    ------------------------------------------------

 NO OUTPUT CONTROL FOR STRESS PERIOD    4   TIME STEP    6
 
 SOLVING FOR HEAD 
                                                   Max.-Head-Change                         Max.-Flux-Residual
  Residual-Control   Outer-Iter.   Inner-Iter.     Column Row Layer    Maximum-Head-Change  Column Row Layer    Maximum-Flux-Residual          L2-NORM 
          0                 1           2             2    2     1       0.4676254724E-02       2    2    1         0.2440887720E+00      0.6041379785E+00
          0                 2           2             2    2     1      -0.4548729011E-03       2    2    1        -0.2440893243E-01      0.5993787656E-01
          0                 3           1             2    2     1       0.3097515027E-04       2    2    1         0.1708625487E-02      0.4151729320E-02

    ------------------------------------------------
       NWT REQUIRED            3 OUTER ITERATIONS 
       AND A TOTAL OF          5 INNER ITERATIONS.
    ------------------------------------------------

 NO OUTPUT CONTROL FOR STRESS PERIOD    4   TIME STEP    7
 
 SOLVING FOR HEAD 
                                                   Max.-Head-Change                         Max.-Flux-Residual
  Residual-Control   Outer-Iter.   Inner-Iter.     Column Row Layer    Maximum-Head-Change  Column Row Layer    Maximum-Flux-Residual          L2-NORM 
          0                 1           2             2    2     1       0.4648224625E-02       2    2    1         0.2426153824E+00      0.5905842825E+00
          0                 2           2             2    2     1      -0.4521463224E-03       2    2    1        -0.2426159251E-01      0.5864016789E-01
          0                 3           1             2    2     1       0.3078948032E-04       2    2    1         0.1698311696E-02      0.4066779503E-02

    ------------------------------------------------
       NWT REQUIRED            3 OUTER ITERATIONS 
       AND A TOTAL OF          5 INNER ITERATIONS.
    ------------------------------------------------

 NO OUTPUT CONTROL FOR STRESS PERIOD    4   TIME STEP    8
 
 SOLVING FOR HEAD 
                                                   Max.-Head-Change                         Max.-Flux-Residual
  Residual-Control   Outer-Iter.   Inner-Iter.     Column Row Layer    Maximum-Head-Change  Column Row Layer    Maximum-Flux-Residual          L2-NORM 
          0                 1           2             2    2     1       0.4620490796E-02       2    2    1         0.2411576139E+00      0.5784936515E+00
          0                 2           2             2    2     1      -0.4494485629E-03       2    2    1        -0.2411581473E-01      0.5748079373E-01
          0                 3           1             2    2     1       0.3060577287E-04       2    2    1         0.1688107249E-02      0.3990009837E-02

    ------------------------------------------------
       NWT REQUIRED            3 OUTER ITERATIONS 
       AND A TOTAL OF          5 INNER ITERATIONS.
    ------------------------------------------------

 NO OUTPUT CONTROL FOR STRESS PERIOD    4   TIME STEP    9
 
 SOLVING FOR HEAD 
                                                   Max.-Head-Change                         Max.-Flux-Residual
  Residual-Control   Outer-Iter.   Inner-Iter.     Column Row Layer    Maximum-Head-Change  Column Row Layer    Maximum-Flux-Residual          L2-NORM 
          0                 1           2             2    2     1       0.4593217499E-02       2    2    1         0.2397240851E+00      0.5676879250E+00
          0                 2           2             2    2     1      -0.4467956013E-03       2    2    1        -0.2397246095E-01      0.5644239693E-01
          0                 3           1             2    2     1       0.3042511661E-04       2    2    1         0.1678072501E-02      0.3919705557E-02

    ------------------------------------------------
       NWT REQUIRED            3 OUTER ITERATIONS 
       AND A TOTAL OF          5 INNER ITERATIONS.
    ------------------------------------------------

 NO OUTPUT CONTROL FOR STRESS PERIOD    4   TIME STEP   10
 
 SOLVING FOR HEAD 
                                                   Max.-Head-Change                         Max.-Flux-Residual
  Residual-Control   Outer-Iter.   Inner-Iter.     Column Row Layer    Maximum-Head-Change  Column Row Layer    Maximum-Flux-Residual          L2-NORM 
          0                 1           2             2    2     1       0.4566229086E-02       2    2    1         0.2383055556E+00      0.5580164441E+00
          0                 2           2             2    2     1      -0.4441703509E-03       2    2    1        -0.2383060709E-01      0.5551733647E-01
          0                 3           1             2    2     1       0.3024634664E-04       2    2    1         0.1668142728E-02      0.3860730970E-02

    ------------------------------------------------
       NWT REQUIRED            3 OUTER ITERATIONS 
       AND A TOTAL OF          5 INNER ITERATIONS.
    ------------------------------------------------

 NO OUTPUT CONTROL FOR STRESS PERIOD    4   TIME STEP   11
 
 SOLVING FOR HEAD 
                                                   Max.-Head-Change                         Max.-Flux-Residual
  Residual-Control   Outer-Iter.   Inner-Iter.     Column Row Layer    Maximum-Head-Change  Column Row Layer    Maximum-Flux-Residual          L2-NORM 
          0                 1           2             2    2     1       0.4539604724E-02       2    2    1         0.2369062365E+00      0.5493256300E+00
          0                 2           2             2    2     1      -0.4415805133E-03       2    2    1        -0.2369067432E-01      0.5468243130E-01
          0                 3           1             2    2     1       0.3006998813E-04       2    2    1         0.1658347432E-02      0.3805047756E-02

    ------------------------------------------------
       NWT REQUIRED            3 OUTER ITERATIONS 
       AND A TOTAL OF          5 INNER ITERATIONS.
    ------------------------------------------------

 NO OUTPUT CONTROL FOR STRESS PERIOD    4   TIME STEP   12
 
 SOLVING FOR HEAD 
                                                   Max.-Head-Change                         Max.-Flux-Residual
  Residual-Control   Outer-Iter.   Inner-Iter.     Column Row Layer    Maximum-Head-Change  Column Row Layer    Maximum-Flux-Residual          L2-NORM 
          0                 1           2             2    2     1       0.4513339485E-02       2    2    1         0.2355257930E+00      0.5415016453E+00
          0                 2           2             2    2     1      -0.4390256092E-03       2    2    1        -0.2355262914E-01      0.5393060692E-01
          0                 3           1             2    2     1       0.2989600890E-04       2    2    1         0.1648684272E-02      0.3755331928E-02

    ------------------------------------------------
       NWT REQUIRED            3 OUTER ITERATIONS 
       AND A TOTAL OF          5 INNER ITERATIONS.
    ------------------------------------------------

 NO OUTPUT CONTROL FOR STRESS PERIOD    4   TIME STEP   13
 
 SOLVING FOR HEAD 
                                                   Max.-Head-Change                         Max.-Flux-Residual
  Residual-Control   Outer-Iter.   Inner-Iter.     Column Row Layer    Maximum-Head-Change  Column Row Layer    Maximum-Flux-Residual          L2-NORM 
          0                 1           2             2    2     1       0.4487427826E-02       2    2    1         0.2341639697E+00      0.5344406390E+00
          0                 2           2             2    2     1      -0.4365050985E-03       2    2    1        -0.2341644594E-01      0.5325071536E-01
          0                 3           1             2    2     1       0.2972437179E-04       2    2    1         0.1639151456E-02      0.3710082794E-02

    ------------------------------------------------
       NWT REQUIRED            3 OUTER ITERATIONS 
       AND A TOTAL OF          5 INNER ITERATIONS.
    ------------------------------------------------

 NO OUTPUT CONTROL FOR STRESS PERIOD    4   TIME STEP   14
 
 SOLVING FOR HEAD 
                                                   Max.-Head-Change                         Max.-Flux-Residual
  Residual-Control   Outer-Iter.   Inner-Iter.     Column Row Layer    Maximum-Head-Change  Column Row Layer    Maximum-Flux-Residual          L2-NORM 
          0                 1           2             2    2     1       0.4461780033E-02       2    2    1         0.2328160390E+00      0.5280411374E+00
          0                 2           2             2    2     1      -0.4340102553E-03       2    2    1        -0.2328165206E-01      0.5263365072E-01
          0                 3           1             2    2     1       0.2955448250E-04       2    2    1         0.1629715893E-02      0.3668517790E-02

    ------------------------------------------------
       NWT REQUIRED            3 OUTER ITERATIONS 
       AND A TOTAL OF          5 INNER ITERATIONS.
    ------------------------------------------------

 NO OUTPUT CONTROL FOR STRESS PERIOD    4   TIME STEP   15
 
 SOLVING FOR HEAD 
                                                   Max.-Head-Change                         Max.-Flux-Residual
  Residual-Control   Outer-Iter.   Inner-Iter.     Column Row Layer    Maximum-Head-Change  Column Row Layer    Maximum-Flux-Residual          L2-NORM 
          0                 1           2             2    2     1       0.4436475633E-02       2    2    1         0.2314862295E+00      0.5222152298E+00
          0                 2           2             2    2     1      -0.4315488156E-03       2    2    1        -0.2314867034E-01      0.5207205197E-01
          0                 3           1             2    2     1       0.2938686765E-04       2    2    1         0.1620407179E-02      0.3631164256E-02

    ------------------------------------------------
       NWT REQUIRED            3 OUTER ITERATIONS 
       AND A TOTAL OF          5 INNER ITERATIONS.
    ------------------------------------------------

 NO OUTPUT CONTROL FOR STRESS PERIOD    4   TIME STEP   16
 
 SOLVING FOR HEAD 
                                                   Max.-Head-Change                         Max.-Flux-Residual
  Residual-Control   Outer-Iter.   Inner-Iter.     Column Row Layer    Maximum-Head-Change  Column Row Layer    Maximum-Flux-Residual          L2-NORM 
          0                 1           2             2    2     1       0.4411510040E-02       2    2    1         0.2301742244E+00      0.5168939270E+00
          0                 2           2             2    2     1      -0.4291203322E-03       2    2    1        -0.2301746904E-01      0.5155762869E-01
          0                 3           1             2    2     1       0.2922149717E-04       2    2    1         0.1611223097E-02      0.3597045539E-02

    ------------------------------------------------
       NWT REQUIRED            3 OUTER ITERATIONS 
       AND A TOTAL OF          5 INNER ITERATIONS.
    ------------------------------------------------

 NO OUTPUT CONTROL FOR STRESS PERIOD    4   TIME STEP   17
 
 SOLVING FOR HEAD 
                                                   Max.-Head-Change                         Max.-Flux-Residual
  Residual-Control   Outer-Iter.   Inner-Iter.     Column Row Layer    Maximum-Head-Change  Column Row Layer    Maximum-Flux-Residual          L2-NORM 
          0                 1           2             2    2     1       0.4386877703E-02       2    2    1         0.2288797862E+00      0.5120294248E+00
          0                 2           2             2    2     1      -0.4267242657E-03       2    2    1        -0.2288802445E-01      0.5108618150E-01
          0                 3           1             2    2     1       0.2905833367E-04       2    2    1         0.1602161971E-02      0.3565162153E-02

    ------------------------------------------------
       NWT REQUIRED            3 OUTER ITERATIONS 
       AND A TOTAL OF          5 INNER ITERATIONS.
    ------------------------------------------------

 NO OUTPUT CONTROL FOR STRESS PERIOD    4   TIME STEP   18
 
 SOLVING FOR HEAD 
                                                   Max.-Head-Change                         Max.-Flux-Residual
  Residual-Control   Outer-Iter.   Inner-Iter.     Column Row Layer    Maximum-Head-Change  Column Row Layer    Maximum-Flux-Residual          L2-NORM 
          0                 1           2             2    2     1       0.4362573845E-02       2    2    1         0.2276026270E+00      0.5075546267E+00
          0                 2           2             2    2     1      -0.4243601519E-03       2    2    1        -0.2276030779E-01      0.5065320008E-01
          0                 3           1             2    2     1       0.2889734662E-04       2    2    1         0.1593221805E-02      0.3536293280E-02

    ------------------------------------------------
       NWT REQUIRED            3 OUTER ITERATIONS 
       AND A TOTAL OF          5 INNER ITERATIONS.
    ------------------------------------------------

 NO OUTPUT CONTROL FOR STRESS PERIOD    4   TIME STEP   19
 
 SOLVING FOR HEAD 
                                                   Max.-Head-Change                         Max.-Flux-Residual
  Residual-Control   Outer-Iter.   Inner-Iter.     Column Row Layer    Maximum-Head-Change  Column Row Layer    Maximum-Flux-Residual          L2-NORM 
          0                 1           2             2    2     1       0.4338508452E-02       2    2    1         0.2263380583E+00      0.5034377484E+00
          0                 2           2             2    2     1      -0.4220192344E-03       2    2    1        -0.2263385019E-01      0.5025361756E-01
          0                 3           1             2    2     1       0.2873793842E-04       2    2    1         0.1584369763E-02      0.3509737241E-02

    ------------------------------------------------
       NWT REQUIRED            3 OUTER ITERATIONS 
       AND A TOTAL OF          5 INNER ITERATIONS.
    ------------------------------------------------

 NO OUTPUT CONTROL FOR STRESS PERIOD    4   TIME STEP   20
 
 SOLVING FOR HEAD 
                                                   Max.-Head-Change                         Max.-Flux-Residual
  Residual-Control   Outer-Iter.   Inner-Iter.     Column Row Layer    Maximum-Head-Change  Column Row Layer    Maximum-Flux-Residual          L2-NORM 
          0                 1           2             2    2     1       0.4314847168E-02       2    2    1         0.2250947353E+00      0.4996133819E+00
          0                 2           2             2    2     1      -0.4197176259E-03       2    2    1        -0.2250951718E-01      0.4988202170E-01
          0                 3           1             2    2     1       0.2858120793E-04       2    2    1         0.1575666462E-02      0.3484505145E-02

    ------------------------------------------------
       NWT REQUIRED            3 OUTER ITERATIONS 
       AND A TOTAL OF          5 INNER ITERATIONS.
    ------------------------------------------------

 NO OUTPUT CONTROL FOR STRESS PERIOD    4   TIME STEP   21
 
 SOLVING FOR HEAD 
                                                   Max.-Head-Change                         Max.-Flux-Residual
  Residual-Control   Outer-Iter.   Inner-Iter.     Column Row Layer    Maximum-Head-Change  Column Row Layer    Maximum-Flux-Residual          L2-NORM 
          0                 1           2             2    2     1       0.4291414479E-02       2    2    1         0.2238634830E+00      0.4960630000E+00
          0                 2           2             2    2     1      -0.4174382541E-03       2    2    1        -0.2238639126E-01      0.4953555933E-01
          0                 3           1             2    2     1       0.2842599145E-04       2    2    1         0.1567047673E-02      0.3460935748E-02

    ------------------------------------------------
       NWT REQUIRED            3 OUTER ITERATIONS 
       AND A TOTAL OF          5 INNER ITERATIONS.
    ------------------------------------------------

 NO OUTPUT CONTROL FOR STRESS PERIOD    4   TIME STEP   22
 
 SOLVING FOR HEAD 
                                                   Max.-Head-Change                         Max.-Flux-Residual
  Residual-Control   Outer-Iter.   Inner-Iter.     Column Row Layer    Maximum-Head-Change  Column Row Layer    Maximum-Flux-Residual          L2-NORM 
          0                 1           2             2    2     1       0.4268291955E-02       2    2    1         0.2226485241E+00      0.4927558579E+00
          0                 2           2             2    2     1      -0.4151890524E-03       2    2    1        -0.2226489467E-01      0.4921288649E-01
          0                 3           1             2    2     1       0.2827282929E-04       2    2    1         0.1558542905E-02      0.3439051360E-02

    ------------------------------------------------
       NWT REQUIRED            3 OUTER ITERATIONS 
       AND A TOTAL OF          5 INNER ITERATIONS.
    ------------------------------------------------

 NO OUTPUT CONTROL FOR STRESS PERIOD    4   TIME STEP   23
 
 SOLVING FOR HEAD 
                                                   Max.-Head-Change                         Max.-Flux-Residual
  Residual-Control   Outer-Iter.   Inner-Iter.     Column Row Layer    Maximum-Head-Change  Column Row Layer    Maximum-Flux-Residual          L2-NORM 
          0                 1           2             2    2     1       0.4245474501E-02       2    2    1         0.2214496470E+00      0.4896634156E+00
          0                 2           2             2    2     1      -0.4129695262E-03       2    2    1        -0.2214500630E-01      0.4890999654E-01
          0                 3           1             2    2     1       0.2812168760E-04       2    2    1         0.1550150717E-02      0.3418764024E-02

    ------------------------------------------------
       NWT REQUIRED            3 OUTER ITERATIONS 
       AND A TOTAL OF          5 INNER ITERATIONS.
    ------------------------------------------------

 NO OUTPUT CONTROL FOR STRESS PERIOD    4   TIME STEP   24
 
 SOLVING FOR HEAD 
                                                   Max.-Head-Change                         Max.-Flux-Residual
  Residual-Control   Outer-Iter.   Inner-Iter.     Column Row Layer    Maximum-Head-Change  Column Row Layer    Maximum-Flux-Residual          L2-NORM 
          0                 1           2             2    2     1       0.4222872837E-02       2    2    1         0.2202621459E+00      0.4867598423E+00
          0                 2           2             2    2     1      -0.4107709911E-03       2    2    1        -0.2202625555E-01      0.4862614022E-01
          0                 3           1             2    2     1       0.2797197567E-04       2    2    1         0.1541838174E-02      0.3398971447E-02

    ------------------------------------------------
       NWT REQUIRED            3 OUTER ITERATIONS 
       AND A TOTAL OF          5 INNER ITERATIONS.
    ------------------------------------------------

 NO OUTPUT CONTROL FOR STRESS PERIOD    4   TIME STEP   25
 
 SOLVING FOR HEAD 
                                                   Max.-Head-Change                         Max.-Flux-Residual
  Residual-Control   Outer-Iter.   Inner-Iter.     Column Row Layer    Maximum-Head-Change  Column Row Layer    Maximum-Flux-Residual          L2-NORM 
          0                 1           2             2    2     1       0.4200652667E-02       2    2    1         0.2190947162E+00      0.4840164055E+00
          0                 2           2             2    2     1      -0.4086095643E-03       2    2    1        -0.2190951193E-01      0.4835785523E-01
          0                 3           1             2    2     1       0.2782479069E-04       2    2    1         0.1533666110E-02      0.3380996787E-02

    ------------------------------------------------
       NWT REQUIRED            3 OUTER ITERATIONS 
       AND A TOTAL OF          5 INNER ITERATIONS.
    ------------------------------------------------

 NO OUTPUT CONTROL FOR STRESS PERIOD    4   TIME STEP   26
 
 SOLVING FOR HEAD 
                                                   Max.-Head-Change                         Max.-Flux-Residual
  Residual-Control   Outer-Iter.   Inner-Iter.     Column Row Layer    Maximum-Head-Change  Column Row Layer    Maximum-Flux-Residual          L2-NORM 
          0                 1           2             2    2     1       0.4178639160E-02       2    2    1         0.2179381834E+00      0.4814391590E+00
          0                 2           2             2    2     1      -0.4064682415E-03       2    2    1        -0.2179385804E-01      0.4810489317E-01
          0                 3           1             2    2     1       0.2767897487E-04       2    2    1         0.1525570355E-02      0.3363678767E-02

    ------------------------------------------------
       NWT REQUIRED            3 OUTER ITERATIONS 
       AND A TOTAL OF          5 INNER ITERATIONS.
    ------------------------------------------------

 NO OUTPUT CONTROL FOR STRESS PERIOD    4   TIME STEP   27
 
 SOLVING FOR HEAD 
                                                   Max.-Head-Change                         Max.-Flux-Residual
  Residual-Control   Outer-Iter.   Inner-Iter.     Column Row Layer    Maximum-Head-Change  Column Row Layer    Maximum-Flux-Residual          L2-NORM 
          0                 1           2             2    2     1       0.4156913551E-02       2    2    1         0.2167968075E+00      0.4789933315E+00
          0                 2           2             2    2     1      -0.4043549225E-03       2    2    1        -0.2167971982E-01      0.4786439523E-01
          0                 3           1             2    2     1       0.2753506545E-04       2    2    1         0.1517580677E-02      0.3347339350E-02

    ------------------------------------------------
       NWT REQUIRED            3 OUTER ITERATIONS 
       AND A TOTAL OF          5 INNER ITERATIONS.
    ------------------------------------------------

 NO OUTPUT CONTROL FOR STRESS PERIOD    4   TIME STEP   28
 
 SOLVING FOR HEAD 
                                                   Max.-Head-Change                         Max.-Flux-Residual
  Residual-Control   Outer-Iter.   Inner-Iter.     Column Row Layer    Maximum-Head-Change  Column Row Layer    Maximum-Flux-Residual          L2-NORM 
          0                 1           2             2    2     1       0.4135471841E-02       2    2    1         0.2156703588E+00      0.4766663408E+00
          0                 2           2             2    2     1      -0.4022692199E-03       2    2    1        -0.2156707436E-01      0.4763557775E-01
          0                 3           1             2    2     1       0.2739303687E-04       2    2    1         0.1509695497E-02      0.3372475522E-02

    ------------------------------------------------
       NWT REQUIRED            3 OUTER ITERATIONS 
       AND A TOTAL OF          5 INNER ITERATIONS.
    ------------------------------------------------

 NO OUTPUT CONTROL FOR STRESS PERIOD    4   TIME STEP   29
 
 SOLVING FOR HEAD 
                                                   Max.-Head-Change                         Max.-Flux-Residual
  Residual-Control   Outer-Iter.   Inner-Iter.     Column Row Layer    Maximum-Head-Change  Column Row Layer    Maximum-Flux-Residual          L2-NORM 
          0                 1           2             2    2     1       0.3369543325E-02       2    2    1         0.1756372830E+00      0.4352889761E+00
          0                 2           2             2    2     1      -0.3277650367E-03       2    2    1        -0.1756375192E-01      0.4340655926E-01
          0                 3           1             2    2     1       0.2231958058E-04       2    2    1         0.1229462943E-02      0.3027373875E-02

    ------------------------------------------------
       NWT REQUIRED            3 OUTER ITERATIONS 
       AND A TOTAL OF          5 INNER ITERATIONS.
    ------------------------------------------------

 NO OUTPUT CONTROL FOR STRESS PERIOD    4   TIME STEP   30



 STREAM LISTING     PERIOD      4   STEP       30

 LAYER ROW COL. STREAM  RCH.  FLOW INTO     FLOW TO   FLOW OUT OF   OVRLND.     DIRECT     STREAM       STREAM     STREAM     STREAM   STREAMBED  STREAMBED
                SEG.NO.  NO.  STRM. RCH.    AQUIFER    STRM. RCH.    RUNOFF     PRECIP       ET          HEAD       DEPTH      WIDTH   CONDCTNC.   GRADIENT

   1    1    1     1     1    2.3343E+01  2.3738E-01   2.3105E+01  0.000E+00  0.000E+00  0.000E+00  1.09420E+03  1.153E+00  1.270E+01  5.716E-02  1.384E+00
   1    2    2     1     2    2.3105E+01  3.6700E-01   2.2738E+01  0.000E+00  0.000E+00  0.000E+00  1.08921E+03  1.148E+00  1.264E+01  8.847E-02  1.383E+00
   1    3    3     1     3    2.2738E+01  3.1238E-01   2.2426E+01  0.000E+00  0.000E+00  0.000E+00  1.08356E+03  1.143E+00  1.257E+01  7.540E-02  1.381E+00
   1    3    4     1     4    2.2426E+01  2.8716E-01   2.2139E+01  0.000E+00  0.000E+00  0.000E+00  1.07855E+03  1.138E+00  1.250E+01  6.939E-02  1.379E+00
   1    4    5     2     1    2.0139E+01  3.1634E-01   1.9822E+01  0.000E+00  0.000E+00  0.000E+00  1.07299E+03  1.056E+00  1.200E+01  7.800E-02  1.352E+00
   1    5    6     2     2    1.9822E+01  2.4280E-01   1.9580E+01  0.000E+00  0.000E+00  0.000E+00  1.06756E+03  1.047E+00  1.200E+01  6.000E-02  1.349E+00
   1    6    6     2     3    1.9580E+01  2.4234E-01   1.9337E+01  0.000E+00  0.000E+00  0.000E+00  1.06283E+03  1.039E+00  1.200E+01  6.000E-02  1.346E+00
   1    7    6     2     4    1.9337E+01  2.4187E-01   1.9095E+01  0.000E+00  0.000E+00  0.000E+00  1.05811E+03  1.031E+00  1.200E+01  6.000E-02  1.344E+00
   1    8    6     2     5    1.9095E+01  2.4140E-01   1.8854E+01  0.000E+00  0.000E+00  0.000E+00  1.05338E+03  1.023E+00  1.200E+01  6.000E-02  1.341E+00
   1    3    5     3     1    2.0000E+00  2.8252E-01   1.7175E+00  0.000E+00  0.000E+00  0.000E+00  1.07555E+03  1.909E+00  9.636E+00  7.227E-02  1.955E+00
   1    3    6     3     2    1.7175E+00  2.4905E-01   1.4684E+00  0.000E+00  0.000E+00  0.000E+00  1.07264E+03  1.727E+00  8.909E+00  6.682E-02  1.864E+00
   1    3    7     3     3    1.4684E+00  1.9718E-01   1.2712E+00  0.000E+00  0.000E+00  0.000E+00  1.06987E+03  1.555E+00  8.218E+00  5.547E-02  1.777E+00
   1    4    8     3     4    1.2712E+00  2.2567E-01   1.0456E+00  0.000E+00  0.000E+00  0.000E+00  1.06682E+03  1.364E+00  7.455E+00  6.709E-02  1.682E+00
   1    5    8     3     5    1.0456E+00  1.5790E-01   8.8768E-01  0.000E+00  0.000E+00  0.000E+00  1.06362E+03  1.164E+00  6.655E+00  4.991E-02  1.582E+00
   1    6    8     3     6    8.8768E-01  5.5980E-02   8.3170E-01  0.000E+00  0.000E+00  0.000E+00  1.06158E+03  1.036E+00  6.145E+00  1.844E-02  1.518E+00
   1    5   10     4     1    1.0000E+01  9.0919E-02   9.9091E+00  0.000E+00  0.000E+00  0.000E+00  1.07836E+03  6.368E-01  1.000E+01  2.500E-02  1.212E+00
   1    5    9     4     2    9.9091E+00  1.8158E-01   9.7275E+00  0.000E+00  0.000E+00  0.000E+00  1.07154E+03  6.315E-01  1.000E+01  5.000E-02  1.211E+00
   1    6    8     4     3    9.7275E+00  1.2689E-01   9.6006E+00  0.000E+00  0.000E+00  0.000E+00  1.06381E+03  6.256E-01  1.000E+01  3.500E-02  1.209E+00
   1    6    8     5     1    1.0432E+01  2.2686E-01   1.0205E+01  0.000E+00  0.000E+00  0.000E+00  1.05868E+03  6.790E-01  1.542E+01  6.166E-02  1.226E+00
   1    7    7     5     2    1.0205E+01  2.7894E-01   9.9265E+00  0.000E+00  0.000E+00  0.000E+00  1.05417E+03  6.732E-01  1.519E+01  7.594E-02  1.224E+00
   1    8    7     5     3    9.9265E+00  1.9221E-01   9.7343E+00  0.000E+00  0.000E+00  0.000E+00  1.04992E+03  6.676E-01  1.497E+01  5.241E-02  1.223E+00
   1    8    6     5     4    9.7343E+00  1.3577E-01   9.5985E+00  0.000E+00  0.000E+00  0.000E+00  1.04691E+03  6.637E-01  1.482E+01  3.706E-02  1.221E+00
   1    9    6     6     1    2.8452E+01  2.5896E-01   2.8194E+01  0.000E+00  0.000E+00  0.000E+00  1.04404E+03  1.316E+00  1.200E+01  6.000E-02  1.439E+00
   1   10    7     6     2    2.8194E+01  2.5853E-01   2.7935E+01  0.000E+00  0.000E+00  0.000E+00  1.03949E+03  1.309E+00  1.200E+01  6.000E-02  1.436E+00
   1   11    7     6     3    2.7935E+01  2.5809E-01   2.7677E+01  0.000E+00  0.000E+00  0.000E+00  1.03494E+03  1.302E+00  1.200E+01  6.000E-02  1.434E+00
   1   12    7     6     4    2.7677E+01  2.5766E-01   2.7419E+01  0.000E+00  0.000E+00  0.000E+00  1.03039E+03  1.294E+00  1.200E+01  6.000E-02  1.431E+00
   1   13    7     6     5    2.7419E+01  8.2030E-03   2.7411E+01  0.000E+00  0.000E+00  0.000E+00  1.02720E+03  1.291E+00  1.200E+01  2.400E-02  1.139E-01
   1   14    9     7     1    1.5000E+02  1.3670E+00   1.4863E+02  0.000E+00  0.000E+00  0.000E+00  1.03987E+03  2.288E+00  5.529E+01  5.593E-01  8.147E-01
   1   13    8     7     2    1.4863E+02  1.9172E+00   1.4672E+02  0.000E+00  0.000E+00  0.000E+00  1.03478E+03  2.279E+00  5.526E+01  6.148E-01  1.040E+00
   1   13    7     7     3    1.4672E+02  1.5809E+00   1.4513E+02  0.000E+00  0.000E+00  0.000E+00  1.02969E+03  2.270E+00  5.521E+01  5.584E-01  9.437E-01
   1   13    6     8     1    1.7255E+02  1.0238E+00   1.7152E+02  0.000E+00  0.000E+00  0.000E+00  1.02484E+03  2.965E+00  4.300E+01  4.382E-01  7.788E-01
   1   13    5     8     2    1.7152E+02  2.5244E-01   1.7127E+02  0.000E+00  0.000E+00  0.000E+00  1.01859E+03  2.961E+00  4.294E+01  4.376E-01  1.923E-01
   1   13    4     8     3    1.7127E+02 -2.2862E+00   1.7356E+02  0.000E+00  0.000E+00  0.000E+00  1.01234E+03  2.968E+00  4.303E+01  4.385E+00 -1.738E-01
   1   13    3     8     4    1.7356E+02 -3.5976E+00   1.7715E+02  0.000E+00  0.000E+00  0.000E+00  1.00611E+03  2.987E+00  4.331E+01  4.413E+00 -2.717E-01
   1   13    2     8     5    1.7715E+02 -2.6042E+00   1.7976E+02  0.000E+00  0.000E+00  0.000E+00  9.99881E+02  3.006E+00  4.359E+01  4.442E+00 -1.954E-01
   1   13    1     8     6    1.7976E+02 -1.9818E+00   1.8174E+02  0.000E+00  0.000E+00  0.000E+00  9.94896E+02  3.021E+00  4.380E+01  2.678E+00 -2.467E-01
   1    8    6     9     1    0.0000E+00  0.0000E+00   0.0000E+00  0.000E+00  0.000E+00  0.000E+00  1.07875E+03  0.000E+00  4.000E+00  0.000E+00  1.000E+00
   1    8    5     9     2    0.0000E+00  0.0000E+00   0.0000E+00  0.000E+00  0.000E+00  0.000E+00  1.07825E+03  0.000E+00  4.000E+00  0.000E+00  1.000E+00





UNSATURATED ZONE PACKAGE VOLUMETRIC BUDGET FOR  TIME STEP    30 STRESS PERIOD    4
  ------------------------------------------------------------------------------



     CUMULATIVE VOLUMES      L**3       RATES FOR THIS TIME STEP      L**3/T
     ------------------                 ------------------------

           IN:                                      IN:
           ---                                      ---
        INFILTRATION =     6759998.6182          INFILTRATION =           0.8475

          OUT:                                     OUT:
          ----                                     ----
              UZF ET =     5917485.4539                UZF ET =           0.7500
        UZF RECHARGE =       73224.0000          UZF RECHARGE =       0.0000E+00

            IN - OUT =      769289.1644              IN - OUT =       9.7500E-02

          STORAGE:                                 STORAGE:
          --------                                 --------
      STORAGE CHANGE =      769289.2225        STORAGE CHANGE =       9.7500E-02

 PERCENT DISCREPANCY IS DIFFERENCE BETWEEN IN-OUT MINUS CHANGE IN STORAGE
 DIVIDED BY THE AVERAGE OF IN AND OUT TIMES 100

 PERCENT DISCREPANCY =           0.00     PERCENT DISCREPANCY =           0.00






1
  VOLUMETRIC BUDGET FOR AGRICULTURAL FIELDS AT  END OF TIME STEP   30, STRESS PERIOD   4
  ------------------------------------------------------------------------------

     CUMULATIVE VOLUMES      L**3       RATES FOR THIS TIME STEP      L**3/T
     ------------------                 ------------------------

           IN:                                      IN:
           ---                                      ---
               AG WELLS  =           0.0000                 AG WELLS  =           0.0000
      DIVERSION SEGMENTS =           0.0000        DIVERSION SEGMENTS =           0.0000
       IRRIGATION PONDS  =           0.0000         IRRIGATION PONDS  =           0.0000
           GW IRRIGATION =           0.0000             GW IRRIGATION =           0.0000
           SW IRRIGATION =           0.0000             SW IRRIGATION =           0.0000
        SYSTEM LOSSES GW =           0.0000          SYSTEM LOSSES GW =           0.0000
        SYSTEM LOSSES SW =           0.0000          SYSTEM LOSSES SW =           0.0000

                TOTAL IN =           0.0000                  TOTAL IN =           0.0000

          OUT:                                     OUT:
          ----                                     ----
               AG WELLS  =           0.0000                 AG WELLS  =           0.0000
      DIVERSION SEGMENTS =           0.0000        DIVERSION SEGMENTS =           0.0000
       IRRIGATION PONDS  =           0.0000         IRRIGATION PONDS  =           0.0000
           GW IRRIGATION =           0.0000             GW IRRIGATION =           0.0000
           SW IRRIGATION =           0.0000             SW IRRIGATION =           0.0000
        SYSTEM LOSSES GW =           0.0000          SYSTEM LOSSES GW =           0.0000
        SYSTEM LOSSES SW =           0.0000          SYSTEM LOSSES SW =           0.0000

               TOTAL OUT =           0.0000                 TOTAL OUT =           0.0000

                IN - OUT =           0.0000                  IN - OUT =           0.0000

     PERCENT DISCREPANCY =           0.00         PERCENT DISCREPANCY =           0.00



1
  VOLUMETRIC BUDGET FOR ENTIRE MODEL AT END OF TIME STEP   30, STRESS PERIOD   4
  ------------------------------------------------------------------------------

     CUMULATIVE VOLUMES      L**3       RATES FOR THIS TIME STEP      L**3/T
     ------------------                 ------------------------

           IN:                                      IN:
           ---                                      ---
             STORAGE     =     4302723.0000               STORAGE     =           0.6662
       CONSTANT HEAD     =           0.0000         CONSTANT HEAD     =           0.0000
     HEAD DEP BOUNDS     =     2295783.0000       HEAD DEP BOUNDS     =           0.2879
      STREAM LEAKAGE     =    93457376.0000        STREAM LEAKAGE     =          12.0729
        UZF RECHARGE     =       73223.9531          UZF RECHARGE     =           0.0000
               GW ET     =           0.0000                 GW ET     =           0.0000
     SURFACE LEAKAGE     =           0.0000       SURFACE LEAKAGE     =           0.0000
           AG WELLS      =           0.0000             AG WELLS      =           0.0000

                TOTAL IN =   100129104.0000                  TOTAL IN =          13.0270

          OUT:                                     OUT:
          ----                                     ----
             STORAGE     =    17553954.0000               STORAGE     =           2.2674
       CONSTANT HEAD     =           0.0000         CONSTANT HEAD     =           0.0000
     HEAD DEP BOUNDS     =     2297699.7500       HEAD DEP BOUNDS     =           0.2902
      STREAM LEAKAGE     =    80281208.0000        STREAM LEAKAGE     =          10.4698
        UZF RECHARGE     =           0.0000          UZF RECHARGE     =           0.0000
               GW ET     =           0.0000                 GW ET     =           0.0000
     SURFACE LEAKAGE     =           0.0000       SURFACE LEAKAGE     =           0.0000
           AG WELLS      =           0.0000             AG WELLS      =           0.0000

               TOTAL OUT =   100132864.0000                 TOTAL OUT =          13.0274

                IN - OUT =       -3760.0000                  IN - OUT =      -4.5490E-04

     PERCENT DISCREPANCY =          -0.00         PERCENT DISCREPANCY =          -0.00






         TIME SUMMARY AT END OF TIME STEP   30 IN STRESS PERIOD    4
                    SECONDS     MINUTES      HOURS       DAYS        YEARS
                    -----------------------------------------------------------
   TIME STEP LENGTH  87667.      1461.1      24.352      1.0147     2.77799E-03
 STRESS PERIOD TIME 2.63000E+06  43833.      730.56      30.440     8.33397E-02
         TOTAL TIME 7.97639E+06 1.32940E+05  2215.7      92.319     0.25276    
1
1
                            STRESS PERIOD NO.    5, LENGTH =   2630000.    
                            -----------------------------------------------

                              NUMBER OF TIME STEPS =    30

                               MULTIPLIER FOR DELT =     1.000

                            INITIAL TIME STEP SIZE =   87666.66    

 REUSING NON-PARAMETER GHB CELLS FROM LAST STRESS PERIOD

      2 GHB CELLS

 REUSING STREAM SEGMENT DATA FROM LAST STRESS PERIOD



            AREAL INFILTRATION RATE
 READING ON UNIT   19 WITH FORMAT: (FREE)              

            1           2           3           4           5           6           7           8           9          10
 ........................................................................................................................
   1   1.0000E-10  2.0000E-10   0.000       0.000       0.000       0.000       0.000       0.000       0.000       0.000    
   2   2.0000E-10  1.0000E-10  2.0000E-10   0.000       0.000      8.0000E-10  8.0000E-10  5.0000E-10   0.000       0.000    
   3    0.000      5.0000E-10  1.0000E-10  1.0000E-10  8.0000E-10  8.0000E-10  5.0000E-10  5.0000E-10   0.000       0.000    
   4   8.0000E-10  5.0000E-10  1.0000E-10  1.0000E-10  1.0000E-10  1.0000E-10  1.0000E-10  1.0000E-10  2.0000E-10   0.000    
   5   8.0000E-10  5.0000E-10  1.0000E-10  1.0000E-10  1.0000E-10  1.0000E-10  1.0000E-10  1.0000E-10  1.0000E-10  1.0000E-10
   6   8.0000E-10  5.0000E-10  5.0000E-10  2.0000E-10  2.0000E-10  1.0000E-10  1.0000E-10  1.0000E-10  1.0000E-10  5.0000E-10
   7   8.0000E-10  5.0000E-10  5.0000E-10  2.0000E-10  2.0000E-10  1.0000E-10  1.0000E-10  2.0000E-10  2.0000E-10   0.000    
   8    0.000      5.0000E-10  5.0000E-10  2.0000E-10  2.0000E-10  1.0000E-10  1.0000E-10  2.0000E-10  5.0000E-10   0.000    
   9    0.000      5.0000E-10  5.0000E-10  2.0000E-10  2.0000E-10  1.0000E-10  1.0000E-10  2.0000E-10  5.0000E-10   0.000    
  10    0.000      5.0000E-10  5.0000E-10  2.0000E-10  2.0000E-10  1.0000E-10  1.0000E-10  2.0000E-10  5.0000E-10  8.0000E-10
  11    0.000      1.0000E-10  1.0000E-10  1.0000E-10  1.0000E-10  1.0000E-10  1.0000E-10  2.0000E-10  5.0000E-10   0.000    
  12   1.0000E-10  1.0000E-10  1.0000E-10  1.0000E-10  1.0000E-10  1.0000E-10  1.0000E-10  1.0000E-10  2.0000E-10   0.000    
  13   1.0000E-10  1.0000E-10  2.0000E-10  2.0000E-10  2.0000E-10  2.0000E-10  2.0000E-10  1.0000E-10  1.0000E-10   0.000    
  14    0.000      2.0000E-10  5.0000E-10  5.0000E-10  5.0000E-10  5.0000E-10  5.0000E-10  2.0000E-10  1.0000E-10   0.000    
  15    0.000       0.000      8.0000E-10  8.0000E-10  8.0000E-10  8.0000E-10   0.000       0.000       0.000       0.000    

                  ET RATE =  2.500000E-08

 USING ET EXTINCTION DEPTH FROM PREVIOUS STRESS PERIOD. CURRENT PERIOD IS:       5

 USING EXTINCTION WATER CONTENT FROM PREVIOUS STRESS PERIOD. CURRENT PERIOD IS:       5

 USING AIR ENTRY PRESSURE FROM PREVIOUS STRESS PERIOD. CURRENT PERIOD IS:       5

 USING ROOT PRESSURE HEAD FROM PREVIOUS STRESS PERIOD. CURRENT PERIOD IS:       5

 USING ROOT ACTIVITY FROM PREVIOUS STRESS PERIOD. CURRENT PERIOD IS:       5

 PROCESSING AG STRESS PERIOD DATA

 READING AG STRESS PERIOD DATA

 READING IRRIGATION SEGMENT

 READING IRRIGATION WELL

 READING SUPPLEMENTAL WELL

 NO IRRPOND OR REUSING IRRPOND DATA FROM LAST STRESS PERIOD

 END PROCESSING AG STRESS PERIOD DATA OPTIONS
 
 SOLVING FOR HEAD 
                                                   Max.-Head-Change                         Max.-Flux-Residual
  Residual-Control   Outer-Iter.   Inner-Iter.     Column Row Layer    Maximum-Head-Change  Column Row Layer    Maximum-Flux-Residual          L2-NORM 
          0                 1           2             4    8     1      -0.1141159368E-01       4    8    1        -0.6034706807E+00      0.1575364839E+01
          0                 2           2             4    8     1       0.1108316152E-02       4    8    1         0.6025351339E-01      0.1571804815E+00
          0                 3           1             4    8     1      -0.7547215764E-04       4    8    1        -0.4217751452E-02      0.1094663850E-01

    ------------------------------------------------
       NWT REQUIRED            3 OUTER ITERATIONS 
       AND A TOTAL OF          5 INNER ITERATIONS.
    ------------------------------------------------

 NO OUTPUT CONTROL FOR STRESS PERIOD    5   TIME STEP    1
 
 SOLVING FOR HEAD 
                                                   Max.-Head-Change                         Max.-Flux-Residual
  Residual-Control   Outer-Iter.   Inner-Iter.     Column Row Layer    Maximum-Head-Change  Column Row Layer    Maximum-Flux-Residual          L2-NORM 
          0                 1           2             4    7     1      -0.1132477129E-01       4    8    1        -0.5927825626E+00      0.1530572327E+01
          0                 2           2             4    7     1       0.1101589238E-02       4    8    1         0.5927788153E-01      0.1525365866E+00
          0                 3           1             4    7     1      -0.7501416480E-04       4    8    1        -0.4149457046E-02      0.1062996147E-01

    ------------------------------------------------
       NWT REQUIRED            3 OUTER ITERATIONS 
       AND A TOTAL OF          5 INNER ITERATIONS.
    ------------------------------------------------

 OUTPUT CONTROL FOR STRESS PERIOD    5   TIME STEP    2
    PRINT BUDGET
    SAVE BUDGET
 UBDSV1 SAVING "         STORAGE" ON UNIT 102 AT TIME STEP 2, STRESS PERIOD 5
 UBDSV2 SAVING "   CONSTANT HEAD" ON UNIT 102 AT TIME STEP 2, STRESS PERIOD 5
 UBDSV1 SAVING "FLOW RIGHT FACE " ON UNIT 102 AT TIME STEP 2, STRESS PERIOD 5
 UBDSV1 SAVING "FLOW FRONT FACE " ON UNIT 102 AT TIME STEP 2, STRESS PERIOD 5

  HEAD DEP BOUNDS   PERIOD    5   STEP     2
 BOUNDARY      1   LAYER   1   ROW    13   COL     1   RATE   -0.289966    
 BOUNDARY      2   LAYER   1   ROW    14   COL     9   RATE    0.287882    



 STREAM LISTING     PERIOD      5   STEP        2

 LAYER ROW COL. STREAM  RCH.  FLOW INTO     FLOW TO   FLOW OUT OF   OVRLND.     DIRECT     STREAM       STREAM     STREAM     STREAM   STREAMBED  STREAMBED
                SEG.NO.  NO.  STRM. RCH.    AQUIFER    STRM. RCH.    RUNOFF     PRECIP       ET          HEAD       DEPTH      WIDTH   CONDCTNC.   GRADIENT

   1    1    1     1     1    1.0500E+01  1.5271E-01   1.0347E+01  0.000E+00  0.000E+00  0.000E+00  1.09396E+03  9.109E-01  8.677E+00  3.905E-02  1.304E+00
   1    2    2     1     2    1.0347E+01  2.3504E-01   1.0112E+01  0.000E+00  0.000E+00  0.000E+00  1.08896E+03  9.059E-01  8.597E+00  6.018E-02  1.302E+00
   1    3    3     1     3    1.0112E+01  1.9904E-01   9.9132E+00  0.000E+00  0.000E+00  0.000E+00  1.08332E+03  9.003E-01  8.505E+00  5.103E-02  1.300E+00
   1    3    4     1     4    9.9132E+00  1.8195E-01   9.7312E+00  0.000E+00  0.000E+00  0.000E+00  1.07830E+03  8.947E-01  8.417E+00  4.672E-02  1.298E+00
   1    4    5     2     1    7.7312E+00  2.8007E-01   7.4512E+00  0.000E+00  0.000E+00  0.000E+00  1.07252E+03  5.907E-01  1.200E+01  7.800E-02  1.197E+00
   1    5    6     2     2    7.4512E+00  2.1474E-01   7.2364E+00  0.000E+00  0.000E+00  0.000E+00  1.06709E+03  5.790E-01  1.200E+01  6.000E-02  1.193E+00
   1    6    6     2     3    7.2364E+00  2.1413E-01   7.0223E+00  0.000E+00  0.000E+00  0.000E+00  1.06236E+03  5.688E-01  1.200E+01  6.000E-02  1.190E+00
   1    7    6     2     4    7.0223E+00  2.1351E-01   6.8088E+00  0.000E+00  0.000E+00  0.000E+00  1.05763E+03  5.585E-01  1.200E+01  6.000E-02  1.186E+00
   1    8    6     2     5    6.8088E+00  2.1289E-01   6.5959E+00  0.000E+00  0.000E+00  0.000E+00  1.05291E+03  5.481E-01  1.200E+01  6.000E-02  1.183E+00
   1    3    5     3     1    2.0000E+00  2.8252E-01   1.7175E+00  0.000E+00  0.000E+00  0.000E+00  1.07555E+03  1.909E+00  9.636E+00  7.227E-02  1.955E+00
   1    3    6     3     2    1.7175E+00  2.4905E-01   1.4684E+00  0.000E+00  0.000E+00  0.000E+00  1.07264E+03  1.727E+00  8.909E+00  6.682E-02  1.864E+00
   1    3    7     3     3    1.4684E+00  1.9718E-01   1.2712E+00  0.000E+00  0.000E+00  0.000E+00  1.06987E+03  1.555E+00  8.218E+00  5.547E-02  1.777E+00
   1    4    8     3     4    1.2712E+00  2.2567E-01   1.0456E+00  0.000E+00  0.000E+00  0.000E+00  1.06682E+03  1.364E+00  7.455E+00  6.709E-02  1.682E+00
   1    5    8     3     5    1.0456E+00  1.5790E-01   8.8768E-01  0.000E+00  0.000E+00  0.000E+00  1.06362E+03  1.164E+00  6.655E+00  4.991E-02  1.582E+00
   1    6    8     3     6    8.8768E-01  5.5980E-02   8.3170E-01  0.000E+00  0.000E+00  0.000E+00  1.06158E+03  1.036E+00  6.145E+00  1.844E-02  1.518E+00
   1    5   10     4     1    1.0000E+01  9.0919E-02   9.9091E+00  0.000E+00  0.000E+00  0.000E+00  1.07836E+03  6.368E-01  1.000E+01  2.500E-02  1.212E+00
   1    5    9     4     2    9.9091E+00  1.8158E-01   9.7275E+00  0.000E+00  0.000E+00  0.000E+00  1.07154E+03  6.315E-01  1.000E+01  5.000E-02  1.211E+00
   1    6    8     4     3    9.7275E+00  1.2689E-01   9.6006E+00  0.000E+00  0.000E+00  0.000E+00  1.06381E+03  6.256E-01  1.000E+01  3.500E-02  1.209E+00
   1    6    8     5     1    1.0432E+01  2.2686E-01   1.0205E+01  0.000E+00  0.000E+00  0.000E+00  1.05868E+03  6.790E-01  1.542E+01  6.166E-02  1.226E+00
   1    7    7     5     2    1.0205E+01  2.7894E-01   9.9265E+00  0.000E+00  0.000E+00  0.000E+00  1.05417E+03  6.732E-01  1.519E+01  7.594E-02  1.224E+00
   1    8    7     5     3    9.9265E+00  1.9221E-01   9.7343E+00  0.000E+00  0.000E+00  0.000E+00  1.04992E+03  6.676E-01  1.497E+01  5.241E-02  1.223E+00
   1    8    6     5     4    9.7343E+00  1.3577E-01   9.5985E+00  0.000E+00  0.000E+00  0.000E+00  1.04691E+03  6.637E-01  1.482E+01  3.706E-02  1.221E+00
   1    9    6     6     1    1.6194E+01  2.3621E-01   1.5958E+01  0.000E+00  0.000E+00  0.000E+00  1.04366E+03  9.369E-01  1.200E+01  6.000E-02  1.312E+00
   1   10    7     6     2    1.5958E+01  2.3572E-01   1.5723E+01  0.000E+00  0.000E+00  0.000E+00  1.03911E+03  9.286E-01  1.200E+01  6.000E-02  1.310E+00
   1   11    7     6     3    1.5723E+01  2.3522E-01   1.5487E+01  0.000E+00  0.000E+00  0.000E+00  1.03456E+03  9.203E-01  1.200E+01  6.000E-02  1.307E+00
   1   12    7     6     4    1.5487E+01  2.3472E-01   1.5253E+01  0.000E+00  0.000E+00  0.000E+00  1.03000E+03  9.120E-01  1.200E+01  6.000E-02  1.304E+00
   1   13    7     6     5    1.5253E+01 -9.8103E-03   1.5262E+01  0.000E+00  0.000E+00  0.000E+00  1.02682E+03  9.079E-01  1.200E+01  2.400E-01 -1.363E-02
   1   14    9     7     1    1.5000E+02  1.3670E+00   1.4863E+02  0.000E+00  0.000E+00  0.000E+00  1.03987E+03  2.288E+00  5.529E+01  5.593E-01  8.147E-01
   1   13    8     7     2    1.4863E+02  1.9171E+00   1.4672E+02  0.000E+00  0.000E+00  0.000E+00  1.03478E+03  2.279E+00  5.526E+01  6.148E-01  1.039E+00
   1   13    7     7     3    1.4672E+02  1.5809E+00   1.4514E+02  0.000E+00  0.000E+00  0.000E+00  1.02969E+03  2.270E+00  5.521E+01  5.584E-01  9.437E-01
   1   13    6     8     1    1.6040E+02  9.6256E-01   1.5943E+02  0.000E+00  0.000E+00  0.000E+00  1.02476E+03  2.885E+00  4.184E+01  4.263E-01  7.526E-01
   1   13    5     8     2    1.5943E+02  2.1186E-01   1.5922E+02  0.000E+00  0.000E+00  0.000E+00  1.01851E+03  2.881E+00  4.178E+01  4.257E-01  1.659E-01
   1   13    4     8     3    1.5922E+02 -2.5151E+00   1.6174E+02  0.000E+00  0.000E+00  0.000E+00  1.01226E+03  2.889E+00  4.189E+01  4.269E+00 -1.964E-01
   1   13    3     8     4    1.6174E+02 -3.7933E+00   1.6553E+02  0.000E+00  0.000E+00  0.000E+00  1.00604E+03  2.910E+00  4.220E+01  4.300E+00 -2.940E-01
   1   13    2     8     5    1.6553E+02 -2.8169E+00   1.6835E+02  0.000E+00  0.000E+00  0.000E+00  9.99807E+02  2.932E+00  4.252E+01  4.333E+00 -2.167E-01
   1   13    1     8     6    1.6835E+02 -2.1103E+00   1.7046E+02  0.000E+00  0.000E+00  0.000E+00  9.94823E+02  2.948E+00  4.275E+01  2.614E+00 -2.691E-01
   1    8    6     9     1    0.0000E+00  0.0000E+00   0.0000E+00  0.000E+00  0.000E+00  0.000E+00  1.07875E+03  0.000E+00  4.000E+00  0.000E+00  1.000E+00
   1    8    5     9     2    0.0000E+00  0.0000E+00   0.0000E+00  0.000E+00  0.000E+00  0.000E+00  1.07825E+03  0.000E+00  4.000E+00  0.000E+00  1.000E+00



 UBDSV3 SAVING "           GW ET" ON UNIT  61 AT TIME STEP 2, STRESS PERIOD 5
 UBDSV3 SAVING "    UZF RECHARGE" ON UNIT  61 AT TIME STEP 2, STRESS PERIOD 5
 UBDSV3 SAVING " SURFACE LEAKAGE" ON UNIT  61 AT TIME STEP 2, STRESS PERIOD 5
 UBDSV3 SAVING "       HORT+DUNN" ON UNIT  61 AT TIME STEP 2, STRESS PERIOD 5
 UBDSV3 SAVING "  STORAGE CHANGE" ON UNIT  61 AT TIME STEP 2, STRESS PERIOD 5


UNSATURATED ZONE PACKAGE VOLUMETRIC BUDGET FOR  TIME STEP     2 STRESS PERIOD    5
  ------------------------------------------------------------------------------



     CUMULATIVE VOLUMES      L**3       RATES FOR THIS TIME STEP      L**3/T
     ------------------                 ------------------------

           IN:                                      IN:
           ---                                      ---
        INFILTRATION =     7560882.5865          INFILTRATION =           4.5675

          OUT:                                     OUT:
          ----                                     ----
              UZF ET =     7403799.9883                UZF ET =           4.5675
        UZF RECHARGE =       73224.0000          UZF RECHARGE =       0.0000E+00

            IN - OUT =       83858.5982              IN - OUT =       0.0000E+00

          STORAGE:                                 STORAGE:
          --------                                 --------
      STORAGE CHANGE =       83858.6509        STORAGE CHANGE =      -2.0514E-09

 PERCENT DISCREPANCY IS DIFFERENCE BETWEEN IN-OUT MINUS CHANGE IN STORAGE
 DIVIDED BY THE AVERAGE OF IN AND OUT TIMES 100

 PERCENT DISCREPANCY =           0.00     PERCENT DISCREPANCY =           0.00






 

            AG WELLS      PERIOD    5   STEP   2
 AG WELL      1   LAYER   1   ROW     6   COL     4   RATE   -0.620000    
 AG WELL      2   LAYER   1   ROW     6   COL     5   RATE   -0.620000    
 AG WELL      3   LAYER   1   ROW     7   COL     4   RATE   -0.620000    
 AG WELL      4   LAYER   1   ROW     7   COL     5   RATE   -0.620000    
 AG WELL      5   LAYER   1   ROW     8   COL     4   RATE   -0.620000    
 AG WELL      6   LAYER   1   ROW     8   COL     5   RATE   -0.620000    
 
 

   DIVERSION SEGMENTS     PERIOD    5   STEP   2
 SEGMENT      9   RATE     0.00000    
 
 

        SW IRRIGATION     PERIOD    5   STEP   2
 SEGMENT      9   ROW     6   COL     4   RATE     0.00000    
 SEGMENT      9   ROW     6   COL     5   RATE     0.00000    
 SEGMENT      9   ROW     7   COL     4   RATE     0.00000    
 SEGMENT      9   ROW     7   COL     5   RATE     0.00000    
 SEGMENT      9   ROW     8   COL     4   RATE     0.00000    
 SEGMENT      9   ROW     8   COL     5   RATE     0.00000    
 
 

        GW IRRIGATION     PERIOD    5   STEP   2
 AG WELL      1   ROW     6   COL     4   RATE    0.620000    
 AG WELL      2   ROW     6   COL     5   RATE    0.620000    
 AG WELL      3   ROW     7   COL     4   RATE    0.620000    
 AG WELL      4   ROW     7   COL     5   RATE    0.620000    
 AG WELL      5   ROW     8   COL     4   RATE    0.620000    
 AG WELL      6   ROW     8   COL     5   RATE    0.620000    
 
1
  VOLUMETRIC BUDGET FOR AGRICULTURAL FIELDS AT  END OF TIME STEP    2, STRESS PERIOD   5
  ------------------------------------------------------------------------------

     CUMULATIVE VOLUMES      L**3       RATES FOR THIS TIME STEP      L**3/T
     ------------------                 ------------------------

           IN:                                      IN:
           ---                                      ---
               AG WELLS  =      652289.0000                 AG WELLS  =           3.7200
      DIVERSION SEGMENTS =           0.0000        DIVERSION SEGMENTS =           0.0000
       IRRIGATION PONDS  =           0.0000         IRRIGATION PONDS  =           0.0000
           GW IRRIGATION =           0.0000             GW IRRIGATION =           0.0000
           SW IRRIGATION =           0.0000             SW IRRIGATION =           0.0000
        SYSTEM LOSSES GW =           0.0000          SYSTEM LOSSES GW =           0.0000
        SYSTEM LOSSES SW =           0.0000          SYSTEM LOSSES SW =           0.0000

                TOTAL IN =      652289.0000                  TOTAL IN =           3.7200

          OUT:                                     OUT:
          ----                                     ----
               AG WELLS  =           0.0000                 AG WELLS  =           0.0000
      DIVERSION SEGMENTS =           0.0000        DIVERSION SEGMENTS =           0.0000
       IRRIGATION PONDS  =           0.0000         IRRIGATION PONDS  =           0.0000
           GW IRRIGATION =      652289.0000             GW IRRIGATION =           3.7200
           SW IRRIGATION =           0.0000             SW IRRIGATION =           0.0000
        SYSTEM LOSSES GW =           0.0000          SYSTEM LOSSES GW =           0.0000
        SYSTEM LOSSES SW =           0.0000          SYSTEM LOSSES SW =           0.0000

               TOTAL OUT =      652289.0000                 TOTAL OUT =           3.7200

                IN - OUT =           0.0000                  IN - OUT =           0.0000

     PERCENT DISCREPANCY =           0.00         PERCENT DISCREPANCY =           0.00



1
  VOLUMETRIC BUDGET FOR ENTIRE MODEL AT END OF TIME STEP    2, STRESS PERIOD   5
  ------------------------------------------------------------------------------

     CUMULATIVE VOLUMES      L**3       RATES FOR THIS TIME STEP      L**3/T
     ------------------                 ------------------------

           IN:                                      IN:
           ---                                      ---
             STORAGE     =     5168190.5000               STORAGE     =           4.8698
       CONSTANT HEAD     =           0.0000         CONSTANT HEAD     =           0.0000
     HEAD DEP BOUNDS     =     2346258.2500       HEAD DEP BOUNDS     =           0.2879
      STREAM LEAKAGE     =    95436288.0000        STREAM LEAKAGE     =          11.2868
        UZF RECHARGE     =       73223.9531          UZF RECHARGE     =           0.0000
               GW ET     =           0.0000                 GW ET     =           0.0000
     SURFACE LEAKAGE     =           0.0000       SURFACE LEAKAGE     =           0.0000
           AG WELLS      =           0.0000             AG WELLS      =           0.0000

                TOTAL IN =   103023960.0000                  TOTAL IN =          16.4444

          OUT:                                     OUT:
          ----                                     ----
             STORAGE     =    17767912.0000               STORAGE     =           1.1881
       CONSTANT HEAD     =           0.0000         CONSTANT HEAD     =           0.0000
     HEAD DEP BOUNDS     =     2348548.7500       HEAD DEP BOUNDS     =           0.2900
      STREAM LEAKAGE     =    82258784.0000        STREAM LEAKAGE     =          11.2453
        UZF RECHARGE     =           0.0000          UZF RECHARGE     =           0.0000
               GW ET     =           0.0000                 GW ET     =           0.0000
     SURFACE LEAKAGE     =           0.0000       SURFACE LEAKAGE     =           0.0000
           AG WELLS      =      652289.0000             AG WELLS      =           3.7200

               TOTAL OUT =   103027536.0000                 TOTAL OUT =          16.4433

                IN - OUT =       -3576.0000                  IN - OUT =       1.0548E-03

     PERCENT DISCREPANCY =          -0.00         PERCENT DISCREPANCY =           0.01






         TIME SUMMARY AT END OF TIME STEP    2 IN STRESS PERIOD    5
                    SECONDS     MINUTES      HOURS       DAYS        YEARS
                    -----------------------------------------------------------
   TIME STEP LENGTH  87667.      1461.1      24.352      1.0147     2.77799E-03
 STRESS PERIOD TIME 1.75333E+05  2922.2      48.704      2.0293     5.55598E-03
         TOTAL TIME 8.15173E+06 1.35862E+05  2264.4      94.349     0.25831    
1
 
 SOLVING FOR HEAD 
                                                   Max.-Head-Change                         Max.-Flux-Residual
  Residual-Control   Outer-Iter.   Inner-Iter.     Column Row Layer    Maximum-Head-Change  Column Row Layer    Maximum-Flux-Residual          L2-NORM 
          0                 1           2             4    7     1      -0.1124733416E-01       4    7    1        -0.5884199457E+00      0.1489451645E+01
          0                 2           2             4    7     1       0.1094056654E-02       4    7    1         0.5884184564E-01      0.1484889538E+00
          0                 3           1             4    7     1      -0.7450122448E-04       4    7    1        -0.4118932386E-02      0.1035242986E-01

    ------------------------------------------------
       NWT REQUIRED            3 OUTER ITERATIONS 
       AND A TOTAL OF          5 INNER ITERATIONS.
    ------------------------------------------------

 OUTPUT CONTROL FOR STRESS PERIOD    5   TIME STEP    3
    PRINT BUDGET
    SAVE BUDGET
 UBDSV1 SAVING "         STORAGE" ON UNIT 102 AT TIME STEP 3, STRESS PERIOD 5
 UBDSV2 SAVING "   CONSTANT HEAD" ON UNIT 102 AT TIME STEP 3, STRESS PERIOD 5
 UBDSV1 SAVING "FLOW RIGHT FACE " ON UNIT 102 AT TIME STEP 3, STRESS PERIOD 5
 UBDSV1 SAVING "FLOW FRONT FACE " ON UNIT 102 AT TIME STEP 3, STRESS PERIOD 5

  HEAD DEP BOUNDS   PERIOD    5   STEP     3
 BOUNDARY      1   LAYER   1   ROW    13   COL     1   RATE   -0.289872    
 BOUNDARY      2   LAYER   1   ROW    14   COL     9   RATE    0.287883    



 STREAM LISTING     PERIOD      5   STEP        3

 LAYER ROW COL. STREAM  RCH.  FLOW INTO     FLOW TO   FLOW OUT OF   OVRLND.     DIRECT     STREAM       STREAM     STREAM     STREAM   STREAMBED  STREAMBED
                SEG.NO.  NO.  STRM. RCH.    AQUIFER    STRM. RCH.    RUNOFF     PRECIP       ET          HEAD       DEPTH      WIDTH   CONDCTNC.   GRADIENT

   1    1    1     1     1    1.0500E+01  1.5271E-01   1.0347E+01  0.000E+00  0.000E+00  0.000E+00  1.09396E+03  9.109E-01  8.677E+00  3.905E-02  1.304E+00
   1    2    2     1     2    1.0347E+01  2.3504E-01   1.0112E+01  0.000E+00  0.000E+00  0.000E+00  1.08896E+03  9.059E-01  8.597E+00  6.018E-02  1.302E+00
   1    3    3     1     3    1.0112E+01  1.9904E-01   9.9132E+00  0.000E+00  0.000E+00  0.000E+00  1.08332E+03  9.003E-01  8.505E+00  5.103E-02  1.300E+00
   1    3    4     1     4    9.9132E+00  1.8195E-01   9.7312E+00  0.000E+00  0.000E+00  0.000E+00  1.07830E+03  8.947E-01  8.417E+00  4.672E-02  1.298E+00
   1    4    5     2     1    7.7312E+00  2.8007E-01   7.4512E+00  0.000E+00  0.000E+00  0.000E+00  1.07252E+03  5.907E-01  1.200E+01  7.800E-02  1.197E+00
   1    5    6     2     2    7.4512E+00  2.1474E-01   7.2364E+00  0.000E+00  0.000E+00  0.000E+00  1.06709E+03  5.790E-01  1.200E+01  6.000E-02  1.193E+00
   1    6    6     2     3    7.2364E+00  2.1413E-01   7.0223E+00  0.000E+00  0.000E+00  0.000E+00  1.06236E+03  5.688E-01  1.200E+01  6.000E-02  1.190E+00
   1    7    6     2     4    7.0223E+00  2.1351E-01   6.8088E+00  0.000E+00  0.000E+00  0.000E+00  1.05763E+03  5.585E-01  1.200E+01  6.000E-02  1.186E+00
   1    8    6     2     5    6.8088E+00  2.1289E-01   6.5959E+00  0.000E+00  0.000E+00  0.000E+00  1.05291E+03  5.481E-01  1.200E+01  6.000E-02  1.183E+00
   1    3    5     3     1    2.0000E+00  2.8252E-01   1.7175E+00  0.000E+00  0.000E+00  0.000E+00  1.07555E+03  1.909E+00  9.636E+00  7.227E-02  1.955E+00
   1    3    6     3     2    1.7175E+00  2.4905E-01   1.4684E+00  0.000E+00  0.000E+00  0.000E+00  1.07264E+03  1.727E+00  8.909E+00  6.682E-02  1.864E+00
   1    3    7     3     3    1.4684E+00  1.9718E-01   1.2712E+00  0.000E+00  0.000E+00  0.000E+00  1.06987E+03  1.555E+00  8.218E+00  5.547E-02  1.777E+00
   1    4    8     3     4    1.2712E+00  2.2567E-01   1.0456E+00  0.000E+00  0.000E+00  0.000E+00  1.06682E+03  1.364E+00  7.455E+00  6.709E-02  1.682E+00
   1    5    8     3     5    1.0456E+00  1.5790E-01   8.8768E-01  0.000E+00  0.000E+00  0.000E+00  1.06362E+03  1.164E+00  6.655E+00  4.991E-02  1.582E+00
   1    6    8     3     6    8.8768E-01  5.5980E-02   8.3170E-01  0.000E+00  0.000E+00  0.000E+00  1.06158E+03  1.036E+00  6.145E+00  1.844E-02  1.518E+00
   1    5   10     4     1    1.0000E+01  9.0919E-02   9.9091E+00  0.000E+00  0.000E+00  0.000E+00  1.07836E+03  6.368E-01  1.000E+01  2.500E-02  1.212E+00
   1    5    9     4     2    9.9091E+00  1.8158E-01   9.7275E+00  0.000E+00  0.000E+00  0.000E+00  1.07154E+03  6.315E-01  1.000E+01  5.000E-02  1.211E+00
   1    6    8     4     3    9.7275E+00  1.2689E-01   9.6006E+00  0.000E+00  0.000E+00  0.000E+00  1.06381E+03  6.256E-01  1.000E+01  3.500E-02  1.209E+00
   1    6    8     5     1    1.0432E+01  2.2686E-01   1.0205E+01  0.000E+00  0.000E+00  0.000E+00  1.05868E+03  6.790E-01  1.542E+01  6.166E-02  1.226E+00
   1    7    7     5     2    1.0205E+01  2.7894E-01   9.9265E+00  0.000E+00  0.000E+00  0.000E+00  1.05417E+03  6.732E-01  1.519E+01  7.594E-02  1.224E+00
   1    8    7     5     3    9.9265E+00  1.9221E-01   9.7343E+00  0.000E+00  0.000E+00  0.000E+00  1.04992E+03  6.676E-01  1.497E+01  5.241E-02  1.223E+00
   1    8    6     5     4    9.7343E+00  1.3577E-01   9.5985E+00  0.000E+00  0.000E+00  0.000E+00  1.04691E+03  6.637E-01  1.482E+01  3.706E-02  1.221E+00
   1    9    6     6     1    1.6194E+01  2.3621E-01   1.5958E+01  0.000E+00  0.000E+00  0.000E+00  1.04366E+03  9.369E-01  1.200E+01  6.000E-02  1.312E+00
   1   10    7     6     2    1.5958E+01  2.3572E-01   1.5723E+01  0.000E+00  0.000E+00  0.000E+00  1.03911E+03  9.286E-01  1.200E+01  6.000E-02  1.310E+00
   1   11    7     6     3    1.5723E+01  2.3522E-01   1.5487E+01  0.000E+00  0.000E+00  0.000E+00  1.03456E+03  9.203E-01  1.200E+01  6.000E-02  1.307E+00
   1   12    7     6     4    1.5487E+01  2.3472E-01   1.5253E+01  0.000E+00  0.000E+00  0.000E+00  1.03000E+03  9.120E-01  1.200E+01  6.000E-02  1.304E+00
   1   13    7     6     5    1.5253E+01 -9.8185E-03   1.5262E+01  0.000E+00  0.000E+00  0.000E+00  1.02682E+03  9.079E-01  1.200E+01  2.400E-01 -1.364E-02
   1   14    9     7     1    1.5000E+02  1.3670E+00   1.4863E+02  0.000E+00  0.000E+00  0.000E+00  1.03987E+03  2.288E+00  5.529E+01  5.593E-01  8.147E-01
   1   13    8     7     2    1.4863E+02  1.9170E+00   1.4672E+02  0.000E+00  0.000E+00  0.000E+00  1.03478E+03  2.279E+00  5.526E+01  6.148E-01  1.039E+00
   1   13    7     7     3    1.4672E+02  1.5808E+00   1.4514E+02  0.000E+00  0.000E+00  0.000E+00  1.02969E+03  2.270E+00  5.521E+01  5.584E-01  9.437E-01
   1   13    6     8     1    1.6040E+02  9.6285E-01   1.5943E+02  0.000E+00  0.000E+00  0.000E+00  1.02476E+03  2.885E+00  4.184E+01  4.263E-01  7.528E-01
   1   13    5     8     2    1.5943E+02  2.1202E-01   1.5922E+02  0.000E+00  0.000E+00  0.000E+00  1.01851E+03  2.881E+00  4.178E+01  4.257E-01  1.660E-01
   1   13    4     8     3    1.5922E+02 -2.4952E+00   1.6172E+02  0.000E+00  0.000E+00  0.000E+00  1.01226E+03  2.889E+00  4.189E+01  4.269E+00 -1.948E-01
   1   13    3     8     4    1.6172E+02 -3.7756E+00   1.6549E+02  0.000E+00  0.000E+00  0.000E+00  1.00604E+03  2.910E+00  4.220E+01  4.300E+00 -2.927E-01
   1   13    2     8     5    1.6549E+02 -2.7979E+00   1.6829E+02  0.000E+00  0.000E+00  0.000E+00  9.99807E+02  2.932E+00  4.251E+01  4.332E+00 -2.153E-01
   1   13    1     8     6    1.6829E+02 -2.1046E+00   1.7040E+02  0.000E+00  0.000E+00  0.000E+00  9.94823E+02  2.948E+00  4.274E+01  2.614E+00 -2.684E-01
   1    8    6     9     1    0.0000E+00  0.0000E+00   0.0000E+00  0.000E+00  0.000E+00  0.000E+00  1.07875E+03  0.000E+00  4.000E+00  0.000E+00  1.000E+00
   1    8    5     9     2    0.0000E+00  0.0000E+00   0.0000E+00  0.000E+00  0.000E+00  0.000E+00  1.07825E+03  0.000E+00  4.000E+00  0.000E+00  1.000E+00



 UBDSV3 SAVING "           GW ET" ON UNIT  61 AT TIME STEP 3, STRESS PERIOD 5
 UBDSV3 SAVING "    UZF RECHARGE" ON UNIT  61 AT TIME STEP 3, STRESS PERIOD 5
 UBDSV3 SAVING " SURFACE LEAKAGE" ON UNIT  61 AT TIME STEP 3, STRESS PERIOD 5
 UBDSV3 SAVING "       HORT+DUNN" ON UNIT  61 AT TIME STEP 3, STRESS PERIOD 5
 UBDSV3 SAVING "  STORAGE CHANGE" ON UNIT  61 AT TIME STEP 3, STRESS PERIOD 5


UNSATURATED ZONE PACKAGE VOLUMETRIC BUDGET FOR  TIME STEP     3 STRESS PERIOD    5
  ------------------------------------------------------------------------------



     CUMULATIVE VOLUMES      L**3       RATES FOR THIS TIME STEP      L**3/T
     ------------------                 ------------------------

           IN:                                      IN:
           ---                                      ---
        INFILTRATION =     7961300.0668          INFILTRATION =           4.5675

          OUT:                                     OUT:
          ----                                     ----
              UZF ET =     7804217.4686                UZF ET =           4.5675
        UZF RECHARGE =       73224.0000          UZF RECHARGE =       0.0000E+00

            IN - OUT =       83858.5982              IN - OUT =       0.0000E+00

          STORAGE:                                 STORAGE:
          --------                                 --------
      STORAGE CHANGE =       83858.6509        STORAGE CHANGE =       2.0749E-17

 PERCENT DISCREPANCY IS DIFFERENCE BETWEEN IN-OUT MINUS CHANGE IN STORAGE
 DIVIDED BY THE AVERAGE OF IN AND OUT TIMES 100

 PERCENT DISCREPANCY =           0.00     PERCENT DISCREPANCY =           0.00






 

            AG WELLS      PERIOD    5   STEP   3
 AG WELL      1   LAYER   1   ROW     6   COL     4   RATE   -0.620000    
 AG WELL      2   LAYER   1   ROW     6   COL     5   RATE   -0.620000    
 AG WELL      3   LAYER   1   ROW     7   COL     4   RATE   -0.620000    
 AG WELL      4   LAYER   1   ROW     7   COL     5   RATE   -0.620000    
 AG WELL      5   LAYER   1   ROW     8   COL     4   RATE   -0.620000    
 AG WELL      6   LAYER   1   ROW     8   COL     5   RATE   -0.620000    
 
 

   DIVERSION SEGMENTS     PERIOD    5   STEP   3
 SEGMENT      9   RATE     0.00000    
 
 

        SW IRRIGATION     PERIOD    5   STEP   3
 SEGMENT      9   ROW     6   COL     4   RATE     0.00000    
 SEGMENT      9   ROW     6   COL     5   RATE     0.00000    
 SEGMENT      9   ROW     7   COL     4   RATE     0.00000    
 SEGMENT      9   ROW     7   COL     5   RATE     0.00000    
 SEGMENT      9   ROW     8   COL     4   RATE     0.00000    
 SEGMENT      9   ROW     8   COL     5   RATE     0.00000    
 
 

        GW IRRIGATION     PERIOD    5   STEP   3
 AG WELL      1   ROW     6   COL     4   RATE    0.620000    
 AG WELL      2   ROW     6   COL     5   RATE    0.620000    
 AG WELL      3   ROW     7   COL     4   RATE    0.620000    
 AG WELL      4   ROW     7   COL     5   RATE    0.620000    
 AG WELL      5   ROW     8   COL     4   RATE    0.620000    
 AG WELL      6   ROW     8   COL     5   RATE    0.620000    
 
1
  VOLUMETRIC BUDGET FOR AGRICULTURAL FIELDS AT  END OF TIME STEP    3, STRESS PERIOD   5
  ------------------------------------------------------------------------------

     CUMULATIVE VOLUMES      L**3       RATES FOR THIS TIME STEP      L**3/T
     ------------------                 ------------------------

           IN:                                      IN:
           ---                                      ---
               AG WELLS  =      978409.0000                 AG WELLS  =           3.7200
      DIVERSION SEGMENTS =           0.0000        DIVERSION SEGMENTS =           0.0000
       IRRIGATION PONDS  =           0.0000         IRRIGATION PONDS  =           0.0000
           GW IRRIGATION =           0.0000             GW IRRIGATION =           0.0000
           SW IRRIGATION =           0.0000             SW IRRIGATION =           0.0000
        SYSTEM LOSSES GW =           0.0000          SYSTEM LOSSES GW =           0.0000
        SYSTEM LOSSES SW =           0.0000          SYSTEM LOSSES SW =           0.0000

                TOTAL IN =      978409.0000                  TOTAL IN =           3.7200

          OUT:                                     OUT:
          ----                                     ----
               AG WELLS  =           0.0000                 AG WELLS  =           0.0000
      DIVERSION SEGMENTS =           0.0000        DIVERSION SEGMENTS =           0.0000
       IRRIGATION PONDS  =           0.0000         IRRIGATION PONDS  =           0.0000
           GW IRRIGATION =      978409.0000             GW IRRIGATION =           3.7200
           SW IRRIGATION =           0.0000             SW IRRIGATION =           0.0000
        SYSTEM LOSSES GW =           0.0000          SYSTEM LOSSES GW =           0.0000
        SYSTEM LOSSES SW =           0.0000          SYSTEM LOSSES SW =           0.0000

               TOTAL OUT =      978409.0000                 TOTAL OUT =           3.7200

                IN - OUT =           0.0000                  IN - OUT =           0.0000

     PERCENT DISCREPANCY =           0.00         PERCENT DISCREPANCY =           0.00



1
  VOLUMETRIC BUDGET FOR ENTIRE MODEL AT END OF TIME STEP    3, STRESS PERIOD   5
  ------------------------------------------------------------------------------

     CUMULATIVE VOLUMES      L**3       RATES FOR THIS TIME STEP      L**3/T
     ------------------                 ------------------------

           IN:                                      IN:
           ---                                      ---
             STORAGE     =     5585220.5000               STORAGE     =           4.7570
       CONSTANT HEAD     =           0.0000         CONSTANT HEAD     =           0.0000
     HEAD DEP BOUNDS     =     2371496.0000       HEAD DEP BOUNDS     =           0.2879
      STREAM LEAKAGE     =    96425792.0000        STREAM LEAKAGE     =          11.2871
        UZF RECHARGE     =       73223.9531          UZF RECHARGE     =           0.0000
               GW ET     =           0.0000                 GW ET     =           0.0000
     SURFACE LEAKAGE     =           0.0000       SURFACE LEAKAGE     =           0.0000
           AG WELLS      =           0.0000             AG WELLS      =           0.0000

                TOTAL IN =   104455736.0000                  TOTAL IN =          16.3320

          OUT:                                     OUT:
          ----                                     ----
             STORAGE     =    17867670.0000               STORAGE     =           1.1379
       CONSTANT HEAD     =           0.0000         CONSTANT HEAD     =           0.0000
     HEAD DEP BOUNDS     =     2373960.7500       HEAD DEP BOUNDS     =           0.2899
      STREAM LEAKAGE     =    83239176.0000        STREAM LEAKAGE     =          11.1832
        UZF RECHARGE     =           0.0000          UZF RECHARGE     =           0.0000
               GW ET     =           0.0000                 GW ET     =           0.0000
     SURFACE LEAKAGE     =           0.0000       SURFACE LEAKAGE     =           0.0000
           AG WELLS      =      978409.0000             AG WELLS      =           3.7200

               TOTAL OUT =   104459216.0000                 TOTAL OUT =          16.3310

                IN - OUT =       -3480.0000                  IN - OUT =       1.0376E-03

     PERCENT DISCREPANCY =          -0.00         PERCENT DISCREPANCY =           0.01






         TIME SUMMARY AT END OF TIME STEP    3 IN STRESS PERIOD    5
                    SECONDS     MINUTES      HOURS       DAYS        YEARS
                    -----------------------------------------------------------
   TIME STEP LENGTH  87667.      1461.1      24.352      1.0147     2.77799E-03
 STRESS PERIOD TIME 2.63000E+05  4383.3      73.056      3.0440     8.33397E-03
         TOTAL TIME 8.23939E+06 1.37323E+05  2288.7      95.363     0.26109    
1
 
 SOLVING FOR HEAD 
                                                   Max.-Head-Change                         Max.-Flux-Residual
  Residual-Control   Outer-Iter.   Inner-Iter.     Column Row Layer    Maximum-Head-Change  Column Row Layer    Maximum-Flux-Residual          L2-NORM 
          0                 1           2             4    7     1      -0.1116608956E-01       4    7    1        -0.5843974180E+00      0.1451460396E+01
          0                 2           2             4    7     1       0.1086153719E-02       4    7    1         0.5843958922E-01      0.1447456941E+00
          0                 3           1             4    7     1      -0.7396306449E-04       4    7    1        -0.4090774456E-02      0.1009543338E-01

    ------------------------------------------------
       NWT REQUIRED            3 OUTER ITERATIONS 
       AND A TOTAL OF          5 INNER ITERATIONS.
    ------------------------------------------------

 OUTPUT CONTROL FOR STRESS PERIOD    5   TIME STEP    4
    PRINT BUDGET
    SAVE BUDGET
 UBDSV1 SAVING "         STORAGE" ON UNIT 102 AT TIME STEP 4, STRESS PERIOD 5
 UBDSV2 SAVING "   CONSTANT HEAD" ON UNIT 102 AT TIME STEP 4, STRESS PERIOD 5
 UBDSV1 SAVING "FLOW RIGHT FACE " ON UNIT 102 AT TIME STEP 4, STRESS PERIOD 5
 UBDSV1 SAVING "FLOW FRONT FACE " ON UNIT 102 AT TIME STEP 4, STRESS PERIOD 5

  HEAD DEP BOUNDS   PERIOD    5   STEP     4
 BOUNDARY      1   LAYER   1   ROW    13   COL     1   RATE   -0.289782    
 BOUNDARY      2   LAYER   1   ROW    14   COL     9   RATE    0.287884    



 STREAM LISTING     PERIOD      5   STEP        4

 LAYER ROW COL. STREAM  RCH.  FLOW INTO     FLOW TO   FLOW OUT OF   OVRLND.     DIRECT     STREAM       STREAM     STREAM     STREAM   STREAMBED  STREAMBED
                SEG.NO.  NO.  STRM. RCH.    AQUIFER    STRM. RCH.    RUNOFF     PRECIP       ET          HEAD       DEPTH      WIDTH   CONDCTNC.   GRADIENT

   1    1    1     1     1    1.0500E+01  1.5271E-01   1.0347E+01  0.000E+00  0.000E+00  0.000E+00  1.09396E+03  9.109E-01  8.677E+00  3.905E-02  1.304E+00
   1    2    2     1     2    1.0347E+01  2.3504E-01   1.0112E+01  0.000E+00  0.000E+00  0.000E+00  1.08896E+03  9.059E-01  8.597E+00  6.018E-02  1.302E+00
   1    3    3     1     3    1.0112E+01  1.9904E-01   9.9132E+00  0.000E+00  0.000E+00  0.000E+00  1.08332E+03  9.003E-01  8.505E+00  5.103E-02  1.300E+00
   1    3    4     1     4    9.9132E+00  1.8195E-01   9.7312E+00  0.000E+00  0.000E+00  0.000E+00  1.07830E+03  8.947E-01  8.417E+00  4.672E-02  1.298E+00
   1    4    5     2     1    7.7312E+00  2.8007E-01   7.4512E+00  0.000E+00  0.000E+00  0.000E+00  1.07252E+03  5.907E-01  1.200E+01  7.800E-02  1.197E+00
   1    5    6     2     2    7.4512E+00  2.1474E-01   7.2364E+00  0.000E+00  0.000E+00  0.000E+00  1.06709E+03  5.790E-01  1.200E+01  6.000E-02  1.193E+00
   1    6    6     2     3    7.2364E+00  2.1413E-01   7.0223E+00  0.000E+00  0.000E+00  0.000E+00  1.06236E+03  5.688E-01  1.200E+01  6.000E-02  1.190E+00
   1    7    6     2     4    7.0223E+00  2.1351E-01   6.8088E+00  0.000E+00  0.000E+00  0.000E+00  1.05763E+03  5.585E-01  1.200E+01  6.000E-02  1.186E+00
   1    8    6     2     5    6.8088E+00  2.1289E-01   6.5959E+00  0.000E+00  0.000E+00  0.000E+00  1.05291E+03  5.481E-01  1.200E+01  6.000E-02  1.183E+00
   1    3    5     3     1    2.0000E+00  2.8252E-01   1.7175E+00  0.000E+00  0.000E+00  0.000E+00  1.07555E+03  1.909E+00  9.636E+00  7.227E-02  1.955E+00
   1    3    6     3     2    1.7175E+00  2.4905E-01   1.4684E+00  0.000E+00  0.000E+00  0.000E+00  1.07264E+03  1.727E+00  8.909E+00  6.682E-02  1.864E+00
   1    3    7     3     3    1.4684E+00  1.9718E-01   1.2712E+00  0.000E+00  0.000E+00  0.000E+00  1.06987E+03  1.555E+00  8.218E+00  5.547E-02  1.777E+00
   1    4    8     3     4    1.2712E+00  2.2567E-01   1.0456E+00  0.000E+00  0.000E+00  0.000E+00  1.06682E+03  1.364E+00  7.455E+00  6.709E-02  1.682E+00
   1    5    8     3     5    1.0456E+00  1.5790E-01   8.8768E-01  0.000E+00  0.000E+00  0.000E+00  1.06362E+03  1.164E+00  6.655E+00  4.991E-02  1.582E+00
   1    6    8     3     6    8.8768E-01  5.5980E-02   8.3170E-01  0.000E+00  0.000E+00  0.000E+00  1.06158E+03  1.036E+00  6.145E+00  1.844E-02  1.518E+00
   1    5   10     4     1    1.0000E+01  9.0919E-02   9.9091E+00  0.000E+00  0.000E+00  0.000E+00  1.07836E+03  6.368E-01  1.000E+01  2.500E-02  1.212E+00
   1    5    9     4     2    9.9091E+00  1.8158E-01   9.7275E+00  0.000E+00  0.000E+00  0.000E+00  1.07154E+03  6.315E-01  1.000E+01  5.000E-02  1.211E+00
   1    6    8     4     3    9.7275E+00  1.2689E-01   9.6006E+00  0.000E+00  0.000E+00  0.000E+00  1.06381E+03  6.256E-01  1.000E+01  3.500E-02  1.209E+00
   1    6    8     5     1    1.0432E+01  2.2686E-01   1.0205E+01  0.000E+00  0.000E+00  0.000E+00  1.05868E+03  6.790E-01  1.542E+01  6.166E-02  1.226E+00
   1    7    7     5     2    1.0205E+01  2.7894E-01   9.9265E+00  0.000E+00  0.000E+00  0.000E+00  1.05417E+03  6.732E-01  1.519E+01  7.594E-02  1.224E+00
   1    8    7     5     3    9.9265E+00  1.9221E-01   9.7343E+00  0.000E+00  0.000E+00  0.000E+00  1.04992E+03  6.676E-01  1.497E+01  5.241E-02  1.223E+00
   1    8    6     5     4    9.7343E+00  1.3577E-01   9.5985E+00  0.000E+00  0.000E+00  0.000E+00  1.04691E+03  6.637E-01  1.482E+01  3.706E-02  1.221E+00
   1    9    6     6     1    1.6194E+01  2.3621E-01   1.5958E+01  0.000E+00  0.000E+00  0.000E+00  1.04366E+03  9.369E-01  1.200E+01  6.000E-02  1.312E+00
   1   10    7     6     2    1.5958E+01  2.3572E-01   1.5723E+01  0.000E+00  0.000E+00  0.000E+00  1.03911E+03  9.286E-01  1.200E+01  6.000E-02  1.310E+00
   1   11    7     6     3    1.5723E+01  2.3522E-01   1.5487E+01  0.000E+00  0.000E+00  0.000E+00  1.03456E+03  9.203E-01  1.200E+01  6.000E-02  1.307E+00
   1   12    7     6     4    1.5487E+01  2.3472E-01   1.5253E+01  0.000E+00  0.000E+00  0.000E+00  1.03000E+03  9.120E-01  1.200E+01  6.000E-02  1.304E+00
   1   13    7     6     5    1.5253E+01 -9.8251E-03   1.5262E+01  0.000E+00  0.000E+00  0.000E+00  1.02682E+03  9.079E-01  1.200E+01  2.400E-01 -1.365E-02
   1   14    9     7     1    1.5000E+02  1.3670E+00   1.4863E+02  0.000E+00  0.000E+00  0.000E+00  1.03987E+03  2.288E+00  5.529E+01  5.593E-01  8.147E-01
   1   13    8     7     2    1.4863E+02  1.9169E+00   1.4672E+02  0.000E+00  0.000E+00  0.000E+00  1.03478E+03  2.279E+00  5.526E+01  6.148E-01  1.039E+00
   1   13    7     7     3    1.4672E+02  1.5808E+00   1.4514E+02  0.000E+00  0.000E+00  0.000E+00  1.02969E+03  2.270E+00  5.521E+01  5.584E-01  9.436E-01
   1   13    6     8     1    1.6040E+02  9.6312E-01   1.5943E+02  0.000E+00  0.000E+00  0.000E+00  1.02476E+03  2.885E+00  4.184E+01  4.263E-01  7.530E-01
   1   13    5     8     2    1.5943E+02  2.1221E-01   1.5922E+02  0.000E+00  0.000E+00  0.000E+00  1.01851E+03  2.881E+00  4.178E+01  4.257E-01  1.661E-01
   1   13    4     8     3    1.5922E+02 -2.4772E+00   1.6170E+02  0.000E+00  0.000E+00  0.000E+00  1.01226E+03  2.889E+00  4.189E+01  4.269E+00 -1.934E-01
   1   13    3     8     4    1.6170E+02 -3.7594E+00   1.6546E+02  0.000E+00  0.000E+00  0.000E+00  1.00603E+03  2.910E+00  4.219E+01  4.300E+00 -2.914E-01
   1   13    2     8     5    1.6546E+02 -2.7803E+00   1.6824E+02  0.000E+00  0.000E+00  0.000E+00  9.99807E+02  2.932E+00  4.251E+01  4.332E+00 -2.140E-01
   1   13    1     8     6    1.6824E+02 -2.0991E+00   1.7034E+02  0.000E+00  0.000E+00  0.000E+00  9.94823E+02  2.948E+00  4.274E+01  2.613E+00 -2.678E-01
   1    8    6     9     1    0.0000E+00  0.0000E+00   0.0000E+00  0.000E+00  0.000E+00  0.000E+00  1.07875E+03  0.000E+00  4.000E+00  0.000E+00  1.000E+00
   1    8    5     9     2    0.0000E+00  0.0000E+00   0.0000E+00  0.000E+00  0.000E+00  0.000E+00  1.07825E+03  0.000E+00  4.000E+00  0.000E+00  1.000E+00



 UBDSV3 SAVING "           GW ET" ON UNIT  61 AT TIME STEP 4, STRESS PERIOD 5
 UBDSV3 SAVING "    UZF RECHARGE" ON UNIT  61 AT TIME STEP 4, STRESS PERIOD 5
 UBDSV3 SAVING " SURFACE LEAKAGE" ON UNIT  61 AT TIME STEP 4, STRESS PERIOD 5
 UBDSV3 SAVING "       HORT+DUNN" ON UNIT  61 AT TIME STEP 4, STRESS PERIOD 5
 UBDSV3 SAVING "  STORAGE CHANGE" ON UNIT  61 AT TIME STEP 4, STRESS PERIOD 5


UNSATURATED ZONE PACKAGE VOLUMETRIC BUDGET FOR  TIME STEP     4 STRESS PERIOD    5
  ------------------------------------------------------------------------------



     CUMULATIVE VOLUMES      L**3       RATES FOR THIS TIME STEP      L**3/T
     ------------------                 ------------------------

           IN:                                      IN:
           ---                                      ---
        INFILTRATION =     8361717.5471          INFILTRATION =           4.5675

          OUT:                                     OUT:
          ----                                     ----
              UZF ET =     8204634.9489                UZF ET =           4.5675
        UZF RECHARGE =       73224.0000          UZF RECHARGE =       0.0000E+00

            IN - OUT =       83858.5982              IN - OUT =       0.0000E+00

          STORAGE:                                 STORAGE:
          --------                                 --------
      STORAGE CHANGE =       83858.6509        STORAGE CHANGE =       2.2824E-16

 PERCENT DISCREPANCY IS DIFFERENCE BETWEEN IN-OUT MINUS CHANGE IN STORAGE
 DIVIDED BY THE AVERAGE OF IN AND OUT TIMES 100

 PERCENT DISCREPANCY =           0.00     PERCENT DISCREPANCY =           0.00






 

            AG WELLS      PERIOD    5   STEP   4
 AG WELL      1   LAYER   1   ROW     6   COL     4   RATE   -0.620000    
 AG WELL      2   LAYER   1   ROW     6   COL     5   RATE   -0.620000    
 AG WELL      3   LAYER   1   ROW     7   COL     4   RATE   -0.620000    
 AG WELL      4   LAYER   1   ROW     7   COL     5   RATE   -0.620000    
 AG WELL      5   LAYER   1   ROW     8   COL     4   RATE   -0.620000    
 AG WELL      6   LAYER   1   ROW     8   COL     5   RATE   -0.620000    
 
 

   DIVERSION SEGMENTS     PERIOD    5   STEP   4
 SEGMENT      9   RATE     0.00000    
 
 

        SW IRRIGATION     PERIOD    5   STEP   4
 SEGMENT      9   ROW     6   COL     4   RATE     0.00000    
 SEGMENT      9   ROW     6   COL     5   RATE     0.00000    
 SEGMENT      9   ROW     7   COL     4   RATE     0.00000    
 SEGMENT      9   ROW     7   COL     5   RATE     0.00000    
 SEGMENT      9   ROW     8   COL     4   RATE     0.00000    
 SEGMENT      9   ROW     8   COL     5   RATE     0.00000    
 
 

        GW IRRIGATION     PERIOD    5   STEP   4
 AG WELL      1   ROW     6   COL     4   RATE    0.620000    
 AG WELL      2   ROW     6   COL     5   RATE    0.620000    
 AG WELL      3   ROW     7   COL     4   RATE    0.620000    
 AG WELL      4   ROW     7   COL     5   RATE    0.620000    
 AG WELL      5   ROW     8   COL     4   RATE    0.620000    
 AG WELL      6   ROW     8   COL     5   RATE    0.620000    
 
1
  VOLUMETRIC BUDGET FOR AGRICULTURAL FIELDS AT  END OF TIME STEP    4, STRESS PERIOD   5
  ------------------------------------------------------------------------------

     CUMULATIVE VOLUMES      L**3       RATES FOR THIS TIME STEP      L**3/T
     ------------------                 ------------------------

           IN:                                      IN:
           ---                                      ---
               AG WELLS  =     1304529.0000                 AG WELLS  =           3.7200
      DIVERSION SEGMENTS =           0.0000        DIVERSION SEGMENTS =           0.0000
       IRRIGATION PONDS  =           0.0000         IRRIGATION PONDS  =           0.0000
           GW IRRIGATION =           0.0000             GW IRRIGATION =           0.0000
           SW IRRIGATION =           0.0000             SW IRRIGATION =           0.0000
        SYSTEM LOSSES GW =           0.0000          SYSTEM LOSSES GW =           0.0000
        SYSTEM LOSSES SW =           0.0000          SYSTEM LOSSES SW =           0.0000

                TOTAL IN =     1304529.0000                  TOTAL IN =           3.7200

          OUT:                                     OUT:
          ----                                     ----
               AG WELLS  =           0.0000                 AG WELLS  =           0.0000
      DIVERSION SEGMENTS =           0.0000        DIVERSION SEGMENTS =           0.0000
       IRRIGATION PONDS  =           0.0000         IRRIGATION PONDS  =           0.0000
           GW IRRIGATION =     1304529.0000             GW IRRIGATION =           3.7200
           SW IRRIGATION =           0.0000             SW IRRIGATION =           0.0000
        SYSTEM LOSSES GW =           0.0000          SYSTEM LOSSES GW =           0.0000
        SYSTEM LOSSES SW =           0.0000          SYSTEM LOSSES SW =           0.0000

               TOTAL OUT =     1304529.0000                 TOTAL OUT =           3.7200

                IN - OUT =           0.0000                  IN - OUT =           0.0000

     PERCENT DISCREPANCY =           0.00         PERCENT DISCREPANCY =           0.00



1
  VOLUMETRIC BUDGET FOR ENTIRE MODEL AT END OF TIME STEP    4, STRESS PERIOD   5
  ------------------------------------------------------------------------------

     CUMULATIVE VOLUMES      L**3       RATES FOR THIS TIME STEP      L**3/T
     ------------------                 ------------------------

           IN:                                      IN:
           ---                                      ---
             STORAGE     =     5993612.0000               STORAGE     =           4.6585
       CONSTANT HEAD     =           0.0000         CONSTANT HEAD     =           0.0000
     HEAD DEP BOUNDS     =     2396733.7500       HEAD DEP BOUNDS     =           0.2879
      STREAM LEAKAGE     =    97415336.0000        STREAM LEAKAGE     =          11.2875
        UZF RECHARGE     =       73223.9531          UZF RECHARGE     =           0.0000
               GW ET     =           0.0000                 GW ET     =           0.0000
     SURFACE LEAKAGE     =           0.0000       SURFACE LEAKAGE     =           0.0000
           AG WELLS      =           0.0000             AG WELLS      =           0.0000

                TOTAL IN =   105878904.0000                  TOTAL IN =          16.2339

          OUT:                                     OUT:
          ----                                     ----
             STORAGE     =    17963862.0000               STORAGE     =           1.0972
       CONSTANT HEAD     =           0.0000         CONSTANT HEAD     =           0.0000
     HEAD DEP BOUNDS     =     2399365.0000       HEAD DEP BOUNDS     =           0.2898
      STREAM LEAKAGE     =    84214544.0000        STREAM LEAKAGE     =          11.1258
        UZF RECHARGE     =           0.0000          UZF RECHARGE     =           0.0000
               GW ET     =           0.0000                 GW ET     =           0.0000
     SURFACE LEAKAGE     =           0.0000       SURFACE LEAKAGE     =           0.0000
           AG WELLS      =     1304529.0000             AG WELLS      =           3.7200

               TOTAL OUT =   105882304.0000                 TOTAL OUT =          16.2329

                IN - OUT =       -3400.0000                  IN - OUT =       1.0223E-03

     PERCENT DISCREPANCY =          -0.00         PERCENT DISCREPANCY =           0.01






         TIME SUMMARY AT END OF TIME STEP    4 IN STRESS PERIOD    5
                    SECONDS     MINUTES      HOURS       DAYS        YEARS
                    -----------------------------------------------------------
   TIME STEP LENGTH  87667.      1461.1      24.352      1.0147     2.77799E-03
 STRESS PERIOD TIME 3.50667E+05  5844.4      97.407      4.0586     1.11120E-02
         TOTAL TIME 8.32706E+06 1.38784E+05  2313.1      96.378     0.26387    
1
 
 SOLVING FOR HEAD 
                                                   Max.-Head-Change                         Max.-Flux-Residual
  Residual-Control   Outer-Iter.   Inner-Iter.     Column Row Layer    Maximum-Head-Change  Column Row Layer    Maximum-Flux-Residual          L2-NORM 
          0                 1           2             4    7     1      -0.1108156292E-01       4    7    1        -0.5801848614E+00      0.1416256702E+01
          0                 2           2             4    7     1       0.1077931541E-02       4    7    1         0.5801833066E-01      0.1412746977E+00
          0                 3           1             4    7     1      -0.7340316523E-04       4    7    1        -0.4061286367E-02      0.9857384063E-02

    ------------------------------------------------
       NWT REQUIRED            3 OUTER ITERATIONS 
       AND A TOTAL OF          5 INNER ITERATIONS.
    ------------------------------------------------

 NO OUTPUT CONTROL FOR STRESS PERIOD    5   TIME STEP    5
 
 SOLVING FOR HEAD 
                                                   Max.-Head-Change                         Max.-Flux-Residual
  Residual-Control   Outer-Iter.   Inner-Iter.     Column Row Layer    Maximum-Head-Change  Column Row Layer    Maximum-Flux-Residual          L2-NORM 
          0                 1           2             4    7     1      -0.1099383700E-01       4    7    1        -0.5757873798E+00      0.1383531895E+01
          0                 2           2             4    7     1       0.1068531955E-02       4    7    1         0.5749848001E-01      0.1380132980E+00
          0                 3           1             4    7     1      -0.7276307869E-04       4    7    1        -0.4024896163E-02      0.9634053482E-02

    ------------------------------------------------
       NWT REQUIRED            3 OUTER ITERATIONS 
       AND A TOTAL OF          5 INNER ITERATIONS.
    ------------------------------------------------

 OUTPUT CONTROL FOR STRESS PERIOD    5   TIME STEP    6
    PRINT BUDGET
    SAVE BUDGET
 UBDSV1 SAVING "         STORAGE" ON UNIT 102 AT TIME STEP 6, STRESS PERIOD 5
 UBDSV2 SAVING "   CONSTANT HEAD" ON UNIT 102 AT TIME STEP 6, STRESS PERIOD 5
 UBDSV1 SAVING "FLOW RIGHT FACE " ON UNIT 102 AT TIME STEP 6, STRESS PERIOD 5
 UBDSV1 SAVING "FLOW FRONT FACE " ON UNIT 102 AT TIME STEP 6, STRESS PERIOD 5

  HEAD DEP BOUNDS   PERIOD    5   STEP     6
 BOUNDARY      1   LAYER   1   ROW    13   COL     1   RATE   -0.289612    
 BOUNDARY      2   LAYER   1   ROW    14   COL     9   RATE    0.287886    



 STREAM LISTING     PERIOD      5   STEP        6

 LAYER ROW COL. STREAM  RCH.  FLOW INTO     FLOW TO   FLOW OUT OF   OVRLND.     DIRECT     STREAM       STREAM     STREAM     STREAM   STREAMBED  STREAMBED
                SEG.NO.  NO.  STRM. RCH.    AQUIFER    STRM. RCH.    RUNOFF     PRECIP       ET          HEAD       DEPTH      WIDTH   CONDCTNC.   GRADIENT

   1    1    1     1     1    1.0500E+01  1.5271E-01   1.0347E+01  0.000E+00  0.000E+00  0.000E+00  1.09396E+03  9.109E-01  8.677E+00  3.905E-02  1.304E+00
   1    2    2     1     2    1.0347E+01  2.3505E-01   1.0112E+01  0.000E+00  0.000E+00  0.000E+00  1.08896E+03  9.059E-01  8.597E+00  6.018E-02  1.302E+00
   1    3    3     1     3    1.0112E+01  1.9904E-01   9.9132E+00  0.000E+00  0.000E+00  0.000E+00  1.08332E+03  9.003E-01  8.505E+00  5.103E-02  1.300E+00
   1    3    4     1     4    9.9132E+00  1.8195E-01   9.7313E+00  0.000E+00  0.000E+00  0.000E+00  1.07830E+03  8.947E-01  8.417E+00  4.672E-02  1.298E+00
   1    4    5     2     1    7.7313E+00  2.8007E-01   7.4512E+00  0.000E+00  0.000E+00  0.000E+00  1.07252E+03  5.907E-01  1.200E+01  7.800E-02  1.197E+00
   1    5    6     2     2    7.4512E+00  2.1474E-01   7.2365E+00  0.000E+00  0.000E+00  0.000E+00  1.06709E+03  5.790E-01  1.200E+01  6.000E-02  1.193E+00
   1    6    6     2     3    7.2365E+00  2.1413E-01   7.0224E+00  0.000E+00  0.000E+00  0.000E+00  1.06236E+03  5.688E-01  1.200E+01  6.000E-02  1.190E+00
   1    7    6     2     4    7.0224E+00  2.1351E-01   6.8088E+00  0.000E+00  0.000E+00  0.000E+00  1.05763E+03  5.585E-01  1.200E+01  6.000E-02  1.186E+00
   1    8    6     2     5    6.8088E+00  2.1289E-01   6.5960E+00  0.000E+00  0.000E+00  0.000E+00  1.05291E+03  5.481E-01  1.200E+01  6.000E-02  1.183E+00
   1    3    5     3     1    2.0000E+00  2.8252E-01   1.7175E+00  0.000E+00  0.000E+00  0.000E+00  1.07555E+03  1.909E+00  9.636E+00  7.227E-02  1.955E+00
   1    3    6     3     2    1.7175E+00  2.4905E-01   1.4684E+00  0.000E+00  0.000E+00  0.000E+00  1.07264E+03  1.727E+00  8.909E+00  6.682E-02  1.864E+00
   1    3    7     3     3    1.4684E+00  1.9718E-01   1.2712E+00  0.000E+00  0.000E+00  0.000E+00  1.06987E+03  1.555E+00  8.218E+00  5.547E-02  1.777E+00
   1    4    8     3     4    1.2712E+00  2.2567E-01   1.0456E+00  0.000E+00  0.000E+00  0.000E+00  1.06682E+03  1.364E+00  7.455E+00  6.709E-02  1.682E+00
   1    5    8     3     5    1.0456E+00  1.5790E-01   8.8768E-01  0.000E+00  0.000E+00  0.000E+00  1.06362E+03  1.164E+00  6.655E+00  4.991E-02  1.582E+00
   1    6    8     3     6    8.8768E-01  5.5980E-02   8.3170E-01  0.000E+00  0.000E+00  0.000E+00  1.06158E+03  1.036E+00  6.145E+00  1.844E-02  1.518E+00
   1    5   10     4     1    1.0000E+01  9.0919E-02   9.9091E+00  0.000E+00  0.000E+00  0.000E+00  1.07836E+03  6.368E-01  1.000E+01  2.500E-02  1.212E+00
   1    5    9     4     2    9.9091E+00  1.8158E-01   9.7275E+00  0.000E+00  0.000E+00  0.000E+00  1.07154E+03  6.315E-01  1.000E+01  5.000E-02  1.211E+00
   1    6    8     4     3    9.7275E+00  1.2689E-01   9.6006E+00  0.000E+00  0.000E+00  0.000E+00  1.06381E+03  6.256E-01  1.000E+01  3.500E-02  1.209E+00
   1    6    8     5     1    1.0432E+01  2.2686E-01   1.0205E+01  0.000E+00  0.000E+00  0.000E+00  1.05868E+03  6.790E-01  1.542E+01  6.166E-02  1.226E+00
   1    7    7     5     2    1.0205E+01  2.7894E-01   9.9265E+00  0.000E+00  0.000E+00  0.000E+00  1.05417E+03  6.732E-01  1.519E+01  7.594E-02  1.224E+00
   1    8    7     5     3    9.9265E+00  1.9221E-01   9.7343E+00  0.000E+00  0.000E+00  0.000E+00  1.04992E+03  6.676E-01  1.497E+01  5.241E-02  1.223E+00
   1    8    6     5     4    9.7343E+00  1.3577E-01   9.5985E+00  0.000E+00  0.000E+00  0.000E+00  1.04691E+03  6.637E-01  1.482E+01  3.706E-02  1.221E+00
   1    9    6     6     1    1.6194E+01  2.3621E-01   1.5958E+01  0.000E+00  0.000E+00  0.000E+00  1.04366E+03  9.369E-01  1.200E+01  6.000E-02  1.312E+00
   1   10    7     6     2    1.5958E+01  2.3572E-01   1.5723E+01  0.000E+00  0.000E+00  0.000E+00  1.03911E+03  9.286E-01  1.200E+01  6.000E-02  1.310E+00
   1   11    7     6     3    1.5723E+01  2.3522E-01   1.5487E+01  0.000E+00  0.000E+00  0.000E+00  1.03456E+03  9.203E-01  1.200E+01  6.000E-02  1.307E+00
   1   12    7     6     4    1.5487E+01  2.3472E-01   1.5253E+01  0.000E+00  0.000E+00  0.000E+00  1.03000E+03  9.120E-01  1.200E+01  6.000E-02  1.304E+00
   1   13    7     6     5    1.5253E+01 -9.8334E-03   1.5262E+01  0.000E+00  0.000E+00  0.000E+00  1.02682E+03  9.079E-01  1.200E+01  2.400E-01 -1.366E-02
   1   14    9     7     1    1.5000E+02  1.3671E+00   1.4863E+02  0.000E+00  0.000E+00  0.000E+00  1.03987E+03  2.288E+00  5.529E+01  5.593E-01  8.148E-01
   1   13    8     7     2    1.4863E+02  1.9168E+00   1.4672E+02  0.000E+00  0.000E+00  0.000E+00  1.03478E+03  2.279E+00  5.526E+01  6.148E-01  1.039E+00
   1   13    7     7     3    1.4672E+02  1.5808E+00   1.4514E+02  0.000E+00  0.000E+00  0.000E+00  1.02969E+03  2.270E+00  5.521E+01  5.584E-01  9.436E-01
   1   13    6     8     1    1.6040E+02  9.6365E-01   1.5943E+02  0.000E+00  0.000E+00  0.000E+00  1.02476E+03  2.885E+00  4.184E+01  4.263E-01  7.534E-01
   1   13    5     8     2    1.5943E+02  2.1261E-01   1.5922E+02  0.000E+00  0.000E+00  0.000E+00  1.01851E+03  2.881E+00  4.178E+01  4.257E-01  1.665E-01
   1   13    4     8     3    1.5922E+02 -2.4460E+00   1.6167E+02  0.000E+00  0.000E+00  0.000E+00  1.01226E+03  2.889E+00  4.189E+01  4.269E+00 -1.910E-01
   1   13    3     8     4    1.6167E+02 -3.7306E+00   1.6540E+02  0.000E+00  0.000E+00  0.000E+00  1.00603E+03  2.910E+00  4.219E+01  4.299E+00 -2.892E-01
   1   13    2     8     5    1.6540E+02 -2.7489E+00   1.6815E+02  0.000E+00  0.000E+00  0.000E+00  9.99806E+02  2.931E+00  4.250E+01  4.331E+00 -2.116E-01
   1   13    1     8     6    1.6815E+02 -2.0886E+00   1.7024E+02  0.000E+00  0.000E+00  0.000E+00  9.94822E+02  2.947E+00  4.273E+01  2.613E+00 -2.665E-01
   1    8    6     9     1    0.0000E+00  0.0000E+00   0.0000E+00  0.000E+00  0.000E+00  0.000E+00  1.07875E+03  0.000E+00  4.000E+00  0.000E+00  1.000E+00
   1    8    5     9     2    0.0000E+00  0.0000E+00   0.0000E+00  0.000E+00  0.000E+00  0.000E+00  1.07825E+03  0.000E+00  4.000E+00  0.000E+00  1.000E+00



 UBDSV3 SAVING "           GW ET" ON UNIT  61 AT TIME STEP 6, STRESS PERIOD 5
 UBDSV3 SAVING "    UZF RECHARGE" ON UNIT  61 AT TIME STEP 6, STRESS PERIOD 5
 UBDSV3 SAVING " SURFACE LEAKAGE" ON UNIT  61 AT TIME STEP 6, STRESS PERIOD 5
 UBDSV3 SAVING "       HORT+DUNN" ON UNIT  61 AT TIME STEP 6, STRESS PERIOD 5
 UBDSV3 SAVING "  STORAGE CHANGE" ON UNIT  61 AT TIME STEP 6, STRESS PERIOD 5


UNSATURATED ZONE PACKAGE VOLUMETRIC BUDGET FOR  TIME STEP     6 STRESS PERIOD    5
  ------------------------------------------------------------------------------



     CUMULATIVE VOLUMES      L**3       RATES FOR THIS TIME STEP      L**3/T
     ------------------                 ------------------------

           IN:                                      IN:
           ---                                      ---
        INFILTRATION =     9162552.5076          INFILTRATION =           4.5675

          OUT:                                     OUT:
          ----                                     ----
              UZF ET =     9005469.9094                UZF ET =           4.5675
        UZF RECHARGE =       73224.0000          UZF RECHARGE =       0.0000E+00

            IN - OUT =       83858.5982              IN - OUT =       0.0000E+00

          STORAGE:                                 STORAGE:
          --------                                 --------
      STORAGE CHANGE =       83858.6509        STORAGE CHANGE =       9.3370E-17

 PERCENT DISCREPANCY IS DIFFERENCE BETWEEN IN-OUT MINUS CHANGE IN STORAGE
 DIVIDED BY THE AVERAGE OF IN AND OUT TIMES 100

 PERCENT DISCREPANCY =           0.00     PERCENT DISCREPANCY =           0.00






 

            AG WELLS      PERIOD    5   STEP   6
 AG WELL      1   LAYER   1   ROW     6   COL     4   RATE   -0.620000    
 AG WELL      2   LAYER   1   ROW     6   COL     5   RATE   -0.620000    
 AG WELL      3   LAYER   1   ROW     7   COL     4   RATE   -0.620000    
 AG WELL      4   LAYER   1   ROW     7   COL     5   RATE   -0.620000    
 AG WELL      5   LAYER   1   ROW     8   COL     4   RATE   -0.620000    
 AG WELL      6   LAYER   1   ROW     8   COL     5   RATE   -0.620000    
 
 

   DIVERSION SEGMENTS     PERIOD    5   STEP   6
 SEGMENT      9   RATE     0.00000    
 
 

        SW IRRIGATION     PERIOD    5   STEP   6
 SEGMENT      9   ROW     6   COL     4   RATE     0.00000    
 SEGMENT      9   ROW     6   COL     5   RATE     0.00000    
 SEGMENT      9   ROW     7   COL     4   RATE     0.00000    
 SEGMENT      9   ROW     7   COL     5   RATE     0.00000    
 SEGMENT      9   ROW     8   COL     4   RATE     0.00000    
 SEGMENT      9   ROW     8   COL     5   RATE     0.00000    
 
 

        GW IRRIGATION     PERIOD    5   STEP   6
 AG WELL      1   ROW     6   COL     4   RATE    0.620000    
 AG WELL      2   ROW     6   COL     5   RATE    0.620000    
 AG WELL      3   ROW     7   COL     4   RATE    0.620000    
 AG WELL      4   ROW     7   COL     5   RATE    0.620000    
 AG WELL      5   ROW     8   COL     4   RATE    0.620000    
 AG WELL      6   ROW     8   COL     5   RATE    0.620000    
 
1
  VOLUMETRIC BUDGET FOR AGRICULTURAL FIELDS AT  END OF TIME STEP    6, STRESS PERIOD   5
  ------------------------------------------------------------------------------

     CUMULATIVE VOLUMES      L**3       RATES FOR THIS TIME STEP      L**3/T
     ------------------                 ------------------------

           IN:                                      IN:
           ---                                      ---
               AG WELLS  =     1956769.0000                 AG WELLS  =           3.7200
      DIVERSION SEGMENTS =           0.0000        DIVERSION SEGMENTS =           0.0000
       IRRIGATION PONDS  =           0.0000         IRRIGATION PONDS  =           0.0000
           GW IRRIGATION =           0.0000             GW IRRIGATION =           0.0000
           SW IRRIGATION =           0.0000             SW IRRIGATION =           0.0000
        SYSTEM LOSSES GW =           0.0000          SYSTEM LOSSES GW =           0.0000
        SYSTEM LOSSES SW =           0.0000          SYSTEM LOSSES SW =           0.0000

                TOTAL IN =     1956769.0000                  TOTAL IN =           3.7200

          OUT:                                     OUT:
          ----                                     ----
               AG WELLS  =           0.0000                 AG WELLS  =           0.0000
      DIVERSION SEGMENTS =           0.0000        DIVERSION SEGMENTS =           0.0000
       IRRIGATION PONDS  =           0.0000         IRRIGATION PONDS  =           0.0000
           GW IRRIGATION =     1956769.0000             GW IRRIGATION =           3.7200
           SW IRRIGATION =           0.0000             SW IRRIGATION =           0.0000
        SYSTEM LOSSES GW =           0.0000          SYSTEM LOSSES GW =           0.0000
        SYSTEM LOSSES SW =           0.0000          SYSTEM LOSSES SW =           0.0000

               TOTAL OUT =     1956769.0000                 TOTAL OUT =           3.7200

                IN - OUT =           0.0000                  IN - OUT =           0.0000

     PERCENT DISCREPANCY =           0.00         PERCENT DISCREPANCY =           0.00



1
  VOLUMETRIC BUDGET FOR ENTIRE MODEL AT END OF TIME STEP    6, STRESS PERIOD   5
  ------------------------------------------------------------------------------

     CUMULATIVE VOLUMES      L**3       RATES FOR THIS TIME STEP      L**3/T
     ------------------                 ------------------------

           IN:                                      IN:
           ---                                      ---
             STORAGE     =     6788335.0000               STORAGE     =           4.4937
       CONSTANT HEAD     =           0.0000         CONSTANT HEAD     =           0.0000
     HEAD DEP BOUNDS     =     2447209.7500       HEAD DEP BOUNDS     =           0.2879
      STREAM LEAKAGE     =    99394528.0000        STREAM LEAKAGE     =          11.2884
        UZF RECHARGE     =       73223.9531          UZF RECHARGE     =           0.0000
               GW ET     =           0.0000                 GW ET     =           0.0000
     SURFACE LEAKAGE     =           0.0000       SURFACE LEAKAGE     =           0.0000
           AG WELLS      =           0.0000             AG WELLS      =           0.0000

                TOTAL IN =   108703296.0000                  TOTAL IN =          16.0699

          OUT:                                     OUT:
          ----                                     ----
             STORAGE     =    18147898.0000               STORAGE     =           1.0354
       CONSTANT HEAD     =           0.0000         CONSTANT HEAD     =           0.0000
     HEAD DEP BOUNDS     =     2450150.7500       HEAD DEP BOUNDS     =           0.2896
      STREAM LEAKAGE     =    86151696.0000        STREAM LEAKAGE     =          11.0239
        UZF RECHARGE     =           0.0000          UZF RECHARGE     =           0.0000
               GW ET     =           0.0000                 GW ET     =           0.0000
     SURFACE LEAKAGE     =           0.0000       SURFACE LEAKAGE     =           0.0000
           AG WELLS      =     1956769.0000             AG WELLS      =           3.7200

               TOTAL OUT =   108706512.0000                 TOTAL OUT =          16.0689

                IN - OUT =       -3216.0000                  IN - OUT =       9.9182E-04

     PERCENT DISCREPANCY =          -0.00         PERCENT DISCREPANCY =           0.01






         TIME SUMMARY AT END OF TIME STEP    6 IN STRESS PERIOD    5
                    SECONDS     MINUTES      HOURS       DAYS        YEARS
                    -----------------------------------------------------------
   TIME STEP LENGTH  87667.      1461.1      24.352      1.0147     2.77799E-03
 STRESS PERIOD TIME 5.26000E+05  8766.7      146.11      6.0880     1.66679E-02
         TOTAL TIME 8.50239E+06 1.41707E+05  2361.8      98.407     0.26942    
1
 
 SOLVING FOR HEAD 
                                                   Max.-Head-Change                         Max.-Flux-Residual
  Residual-Control   Outer-Iter.   Inner-Iter.     Column Row Layer    Maximum-Head-Change  Column Row Layer    Maximum-Flux-Residual          L2-NORM 
          0                 1           2             4    7     1      -0.1090978798E-01       4    7    1        -0.5712776714E+00      0.1353067390E+01
          0                 2           2             4    7     1       0.1061223442E-02       4    7    1         0.5712767506E-01      0.1350379406E+00
          0                 3           1             4    7     1      -0.7226539693E-04       4    7    1        -0.3998939854E-02      0.9428234538E-02

    ------------------------------------------------
       NWT REQUIRED            3 OUTER ITERATIONS 
       AND A TOTAL OF          5 INNER ITERATIONS.
    ------------------------------------------------

 OUTPUT CONTROL FOR STRESS PERIOD    5   TIME STEP    7
    PRINT BUDGET
    SAVE BUDGET
 UBDSV1 SAVING "         STORAGE" ON UNIT 102 AT TIME STEP 7, STRESS PERIOD 5
 UBDSV2 SAVING "   CONSTANT HEAD" ON UNIT 102 AT TIME STEP 7, STRESS PERIOD 5
 UBDSV1 SAVING "FLOW RIGHT FACE " ON UNIT 102 AT TIME STEP 7, STRESS PERIOD 5
 UBDSV1 SAVING "FLOW FRONT FACE " ON UNIT 102 AT TIME STEP 7, STRESS PERIOD 5

  HEAD DEP BOUNDS   PERIOD    5   STEP     7
 BOUNDARY      1   LAYER   1   ROW    13   COL     1   RATE   -0.289531    
 BOUNDARY      2   LAYER   1   ROW    14   COL     9   RATE    0.287887    



 STREAM LISTING     PERIOD      5   STEP        7

 LAYER ROW COL. STREAM  RCH.  FLOW INTO     FLOW TO   FLOW OUT OF   OVRLND.     DIRECT     STREAM       STREAM     STREAM     STREAM   STREAMBED  STREAMBED
                SEG.NO.  NO.  STRM. RCH.    AQUIFER    STRM. RCH.    RUNOFF     PRECIP       ET          HEAD       DEPTH      WIDTH   CONDCTNC.   GRADIENT

   1    1    1     1     1    1.0500E+01  1.5271E-01   1.0347E+01  0.000E+00  0.000E+00  0.000E+00  1.09396E+03  9.109E-01  8.677E+00  3.905E-02  1.304E+00
   1    2    2     1     2    1.0347E+01  2.3505E-01   1.0112E+01  0.000E+00  0.000E+00  0.000E+00  1.08896E+03  9.059E-01  8.597E+00  6.018E-02  1.302E+00
   1    3    3     1     3    1.0112E+01  1.9904E-01   9.9132E+00  0.000E+00  0.000E+00  0.000E+00  1.08332E+03  9.003E-01  8.505E+00  5.103E-02  1.300E+00
   1    3    4     1     4    9.9132E+00  1.8195E-01   9.7313E+00  0.000E+00  0.000E+00  0.000E+00  1.07830E+03  8.947E-01  8.417E+00  4.672E-02  1.298E+00
   1    4    5     2     1    7.7313E+00  2.8007E-01   7.4512E+00  0.000E+00  0.000E+00  0.000E+00  1.07252E+03  5.907E-01  1.200E+01  7.800E-02  1.197E+00
   1    5    6     2     2    7.4512E+00  2.1474E-01   7.2365E+00  0.000E+00  0.000E+00  0.000E+00  1.06709E+03  5.790E-01  1.200E+01  6.000E-02  1.193E+00
   1    6    6     2     3    7.2365E+00  2.1413E-01   7.0224E+00  0.000E+00  0.000E+00  0.000E+00  1.06236E+03  5.688E-01  1.200E+01  6.000E-02  1.190E+00
   1    7    6     2     4    7.0224E+00  2.1351E-01   6.8088E+00  0.000E+00  0.000E+00  0.000E+00  1.05763E+03  5.585E-01  1.200E+01  6.000E-02  1.186E+00
   1    8    6     2     5    6.8088E+00  2.1289E-01   6.5960E+00  0.000E+00  0.000E+00  0.000E+00  1.05291E+03  5.481E-01  1.200E+01  6.000E-02  1.183E+00
   1    3    5     3     1    2.0000E+00  2.8252E-01   1.7175E+00  0.000E+00  0.000E+00  0.000E+00  1.07555E+03  1.909E+00  9.636E+00  7.227E-02  1.955E+00
   1    3    6     3     2    1.7175E+00  2.4905E-01   1.4684E+00  0.000E+00  0.000E+00  0.000E+00  1.07264E+03  1.727E+00  8.909E+00  6.682E-02  1.864E+00
   1    3    7     3     3    1.4684E+00  1.9718E-01   1.2712E+00  0.000E+00  0.000E+00  0.000E+00  1.06987E+03  1.555E+00  8.218E+00  5.547E-02  1.777E+00
   1    4    8     3     4    1.2712E+00  2.2567E-01   1.0456E+00  0.000E+00  0.000E+00  0.000E+00  1.06682E+03  1.364E+00  7.455E+00  6.709E-02  1.682E+00
   1    5    8     3     5    1.0456E+00  1.5790E-01   8.8768E-01  0.000E+00  0.000E+00  0.000E+00  1.06362E+03  1.164E+00  6.655E+00  4.991E-02  1.582E+00
   1    6    8     3     6    8.8768E-01  5.5980E-02   8.3170E-01  0.000E+00  0.000E+00  0.000E+00  1.06158E+03  1.036E+00  6.145E+00  1.844E-02  1.518E+00
   1    5   10     4     1    1.0000E+01  9.0919E-02   9.9091E+00  0.000E+00  0.000E+00  0.000E+00  1.07836E+03  6.368E-01  1.000E+01  2.500E-02  1.212E+00
   1    5    9     4     2    9.9091E+00  1.8158E-01   9.7275E+00  0.000E+00  0.000E+00  0.000E+00  1.07154E+03  6.315E-01  1.000E+01  5.000E-02  1.211E+00
   1    6    8     4     3    9.7275E+00  1.2689E-01   9.6006E+00  0.000E+00  0.000E+00  0.000E+00  1.06381E+03  6.256E-01  1.000E+01  3.500E-02  1.209E+00
   1    6    8     5     1    1.0432E+01  2.2686E-01   1.0205E+01  0.000E+00  0.000E+00  0.000E+00  1.05868E+03  6.790E-01  1.542E+01  6.166E-02  1.226E+00
   1    7    7     5     2    1.0205E+01  2.7894E-01   9.9265E+00  0.000E+00  0.000E+00  0.000E+00  1.05417E+03  6.732E-01  1.519E+01  7.594E-02  1.224E+00
   1    8    7     5     3    9.9265E+00  1.9221E-01   9.7343E+00  0.000E+00  0.000E+00  0.000E+00  1.04992E+03  6.676E-01  1.497E+01  5.241E-02  1.223E+00
   1    8    6     5     4    9.7343E+00  1.3577E-01   9.5985E+00  0.000E+00  0.000E+00  0.000E+00  1.04691E+03  6.637E-01  1.482E+01  3.706E-02  1.221E+00
   1    9    6     6     1    1.6194E+01  2.3621E-01   1.5958E+01  0.000E+00  0.000E+00  0.000E+00  1.04366E+03  9.369E-01  1.200E+01  6.000E-02  1.312E+00
   1   10    7     6     2    1.5958E+01  2.3572E-01   1.5723E+01  0.000E+00  0.000E+00  0.000E+00  1.03911E+03  9.286E-01  1.200E+01  6.000E-02  1.310E+00
   1   11    7     6     3    1.5723E+01  2.3522E-01   1.5487E+01  0.000E+00  0.000E+00  0.000E+00  1.03456E+03  9.203E-01  1.200E+01  6.000E-02  1.307E+00
   1   12    7     6     4    1.5487E+01  2.3472E-01   1.5253E+01  0.000E+00  0.000E+00  0.000E+00  1.03000E+03  9.120E-01  1.200E+01  6.000E-02  1.304E+00
   1   13    7     6     5    1.5253E+01 -9.8359E-03   1.5262E+01  0.000E+00  0.000E+00  0.000E+00  1.02682E+03  9.079E-01  1.200E+01  2.400E-01 -1.366E-02
   1   14    9     7     1    1.5000E+02  1.3671E+00   1.4863E+02  0.000E+00  0.000E+00  0.000E+00  1.03987E+03  2.288E+00  5.529E+01  5.593E-01  8.148E-01
   1   13    8     7     2    1.4863E+02  1.9168E+00   1.4672E+02  0.000E+00  0.000E+00  0.000E+00  1.03478E+03  2.279E+00  5.526E+01  6.148E-01  1.039E+00
   1   13    7     7     3    1.4672E+02  1.5808E+00   1.4514E+02  0.000E+00  0.000E+00  0.000E+00  1.02969E+03  2.270E+00  5.521E+01  5.584E-01  9.436E-01
   1   13    6     8     1    1.6040E+02  9.6389E-01   1.5943E+02  0.000E+00  0.000E+00  0.000E+00  1.02476E+03  2.885E+00  4.184E+01  4.263E-01  7.536E-01
   1   13    5     8     2    1.5943E+02  2.1283E-01   1.5922E+02  0.000E+00  0.000E+00  0.000E+00  1.01851E+03  2.881E+00  4.178E+01  4.257E-01  1.666E-01
   1   13    4     8     3    1.5922E+02 -2.4325E+00   1.6165E+02  0.000E+00  0.000E+00  0.000E+00  1.01226E+03  2.889E+00  4.189E+01  4.268E+00 -1.900E-01
   1   13    3     8     4    1.6165E+02 -3.7178E+00   1.6537E+02  0.000E+00  0.000E+00  0.000E+00  1.00603E+03  2.909E+00  4.219E+01  4.299E+00 -2.883E-01
   1   13    2     8     5    1.6537E+02 -2.7349E+00   1.6811E+02  0.000E+00  0.000E+00  0.000E+00  9.99806E+02  2.931E+00  4.250E+01  4.331E+00 -2.105E-01
   1   13    1     8     6    1.6811E+02 -2.0836E+00   1.7019E+02  0.000E+00  0.000E+00  0.000E+00  9.94822E+02  2.947E+00  4.273E+01  2.612E+00 -2.659E-01
   1    8    6     9     1    0.0000E+00  0.0000E+00   0.0000E+00  0.000E+00  0.000E+00  0.000E+00  1.07875E+03  0.000E+00  4.000E+00  0.000E+00  1.000E+00
   1    8    5     9     2    0.0000E+00  0.0000E+00   0.0000E+00  0.000E+00  0.000E+00  0.000E+00  1.07825E+03  0.000E+00  4.000E+00  0.000E+00  1.000E+00



 UBDSV3 SAVING "           GW ET" ON UNIT  61 AT TIME STEP 7, STRESS PERIOD 5
 UBDSV3 SAVING "    UZF RECHARGE" ON UNIT  61 AT TIME STEP 7, STRESS PERIOD 5
 UBDSV3 SAVING " SURFACE LEAKAGE" ON UNIT  61 AT TIME STEP 7, STRESS PERIOD 5
 UBDSV3 SAVING "       HORT+DUNN" ON UNIT  61 AT TIME STEP 7, STRESS PERIOD 5
 UBDSV3 SAVING "  STORAGE CHANGE" ON UNIT  61 AT TIME STEP 7, STRESS PERIOD 5


UNSATURATED ZONE PACKAGE VOLUMETRIC BUDGET FOR  TIME STEP     7 STRESS PERIOD    5
  ------------------------------------------------------------------------------



     CUMULATIVE VOLUMES      L**3       RATES FOR THIS TIME STEP      L**3/T
     ------------------                 ------------------------

           IN:                                      IN:
           ---                                      ---
        INFILTRATION =     9562969.9878          INFILTRATION =           4.5675

          OUT:                                     OUT:
          ----                                     ----
              UZF ET =     9405887.3896                UZF ET =           4.5675
        UZF RECHARGE =       73224.0000          UZF RECHARGE =       0.0000E+00

            IN - OUT =       83858.5982              IN - OUT =       0.0000E+00

          STORAGE:                                 STORAGE:
          --------                                 --------
      STORAGE CHANGE =       83858.6509        STORAGE CHANGE =       2.0749E-17

 PERCENT DISCREPANCY IS DIFFERENCE BETWEEN IN-OUT MINUS CHANGE IN STORAGE
 DIVIDED BY THE AVERAGE OF IN AND OUT TIMES 100

 PERCENT DISCREPANCY =           0.00     PERCENT DISCREPANCY =           0.00






 

            AG WELLS      PERIOD    5   STEP   7
 AG WELL      1   LAYER   1   ROW     6   COL     4   RATE   -0.620000    
 AG WELL      2   LAYER   1   ROW     6   COL     5   RATE   -0.620000    
 AG WELL      3   LAYER   1   ROW     7   COL     4   RATE   -0.620000    
 AG WELL      4   LAYER   1   ROW     7   COL     5   RATE   -0.620000    
 AG WELL      5   LAYER   1   ROW     8   COL     4   RATE   -0.620000    
 AG WELL      6   LAYER   1   ROW     8   COL     5   RATE   -0.620000    
 
 

   DIVERSION SEGMENTS     PERIOD    5   STEP   7
 SEGMENT      9   RATE     0.00000    
 
 

        SW IRRIGATION     PERIOD    5   STEP   7
 SEGMENT      9   ROW     6   COL     4   RATE     0.00000    
 SEGMENT      9   ROW     6   COL     5   RATE     0.00000    
 SEGMENT      9   ROW     7   COL     4   RATE     0.00000    
 SEGMENT      9   ROW     7   COL     5   RATE     0.00000    
 SEGMENT      9   ROW     8   COL     4   RATE     0.00000    
 SEGMENT      9   ROW     8   COL     5   RATE     0.00000    
 
 

        GW IRRIGATION     PERIOD    5   STEP   7
 AG WELL      1   ROW     6   COL     4   RATE    0.620000    
 AG WELL      2   ROW     6   COL     5   RATE    0.620000    
 AG WELL      3   ROW     7   COL     4   RATE    0.620000    
 AG WELL      4   ROW     7   COL     5   RATE    0.620000    
 AG WELL      5   ROW     8   COL     4   RATE    0.620000    
 AG WELL      6   ROW     8   COL     5   RATE    0.620000    
 
1
  VOLUMETRIC BUDGET FOR AGRICULTURAL FIELDS AT  END OF TIME STEP    7, STRESS PERIOD   5
  ------------------------------------------------------------------------------

     CUMULATIVE VOLUMES      L**3       RATES FOR THIS TIME STEP      L**3/T
     ------------------                 ------------------------

           IN:                                      IN:
           ---                                      ---
               AG WELLS  =     2282889.0000                 AG WELLS  =           3.7200
      DIVERSION SEGMENTS =           0.0000        DIVERSION SEGMENTS =           0.0000
       IRRIGATION PONDS  =           0.0000         IRRIGATION PONDS  =           0.0000
           GW IRRIGATION =           0.0000             GW IRRIGATION =           0.0000
           SW IRRIGATION =           0.0000             SW IRRIGATION =           0.0000
        SYSTEM LOSSES GW =           0.0000          SYSTEM LOSSES GW =           0.0000
        SYSTEM LOSSES SW =           0.0000          SYSTEM LOSSES SW =           0.0000

                TOTAL IN =     2282889.0000                  TOTAL IN =           3.7200

          OUT:                                     OUT:
          ----                                     ----
               AG WELLS  =           0.0000                 AG WELLS  =           0.0000
      DIVERSION SEGMENTS =           0.0000        DIVERSION SEGMENTS =           0.0000
       IRRIGATION PONDS  =           0.0000         IRRIGATION PONDS  =           0.0000
           GW IRRIGATION =     2282889.0000             GW IRRIGATION =           3.7200
           SW IRRIGATION =           0.0000             SW IRRIGATION =           0.0000
        SYSTEM LOSSES GW =           0.0000          SYSTEM LOSSES GW =           0.0000
        SYSTEM LOSSES SW =           0.0000          SYSTEM LOSSES SW =           0.0000

               TOTAL OUT =     2282889.0000                 TOTAL OUT =           3.7200

                IN - OUT =           0.0000                  IN - OUT =           0.0000

     PERCENT DISCREPANCY =           0.00         PERCENT DISCREPANCY =           0.00



1
  VOLUMETRIC BUDGET FOR ENTIRE MODEL AT END OF TIME STEP    7, STRESS PERIOD   5
  ------------------------------------------------------------------------------

     CUMULATIVE VOLUMES      L**3       RATES FOR THIS TIME STEP      L**3/T
     ------------------                 ------------------------

           IN:                                      IN:
           ---                                      ---
             STORAGE     =     7175962.5000               STORAGE     =           4.4216
       CONSTANT HEAD     =           0.0000         CONSTANT HEAD     =           0.0000
     HEAD DEP BOUNDS     =     2472447.7500       HEAD DEP BOUNDS     =           0.2879
      STREAM LEAKAGE     =   100384176.0000        STREAM LEAKAGE     =          11.2888
        UZF RECHARGE     =       73223.9531          UZF RECHARGE     =           0.0000
               GW ET     =           0.0000                 GW ET     =           0.0000
     SURFACE LEAKAGE     =           0.0000       SURFACE LEAKAGE     =           0.0000
           AG WELLS      =           0.0000             AG WELLS      =           0.0000

                TOTAL IN =   110105808.0000                  TOTAL IN =          15.9983

          OUT:                                     OUT:
          ----                                     ----
             STORAGE     =    18236364.0000               STORAGE     =           1.0091
       CONSTANT HEAD     =           0.0000         CONSTANT HEAD     =           0.0000
     HEAD DEP BOUNDS     =     2475533.0000       HEAD DEP BOUNDS     =           0.2895
      STREAM LEAKAGE     =    87114160.0000        STREAM LEAKAGE     =          10.9787
        UZF RECHARGE     =           0.0000          UZF RECHARGE     =           0.0000
               GW ET     =           0.0000                 GW ET     =           0.0000
     SURFACE LEAKAGE     =           0.0000       SURFACE LEAKAGE     =           0.0000
           AG WELLS      =     2282889.0000             AG WELLS      =           3.7200

               TOTAL OUT =   110108944.0000                 TOTAL OUT =          15.9973

                IN - OUT =       -3136.0000                  IN - OUT =       9.7942E-04

     PERCENT DISCREPANCY =          -0.00         PERCENT DISCREPANCY =           0.01






         TIME SUMMARY AT END OF TIME STEP    7 IN STRESS PERIOD    5
                    SECONDS     MINUTES      HOURS       DAYS        YEARS
                    -----------------------------------------------------------
   TIME STEP LENGTH  87667.      1461.1      24.352      1.0147     2.77799E-03
 STRESS PERIOD TIME 6.13667E+05  10228.      170.46      7.1026     1.94459E-02
         TOTAL TIME 8.59006E+06 1.43168E+05  2386.1      99.422     0.27220    
1
 
 SOLVING FOR HEAD 
                                                   Max.-Head-Change                         Max.-Flux-Residual
  Residual-Control   Outer-Iter.   Inner-Iter.     Column Row Layer    Maximum-Head-Change  Column Row Layer    Maximum-Flux-Residual          L2-NORM 
          0                 1           2             4    7     1      -0.1082190077E-01       4    7    1        -0.5668587263E+00      0.1324696667E+01
          0                 2           2             4    7     1       0.1052674358E-02       4    7    1         0.5668577667E-01      0.1322343062E+00
          0                 3           1             4    7     1      -0.7168323654E-04       4    7    1        -0.3968006986E-02      0.9234699709E-02

    ------------------------------------------------
       NWT REQUIRED            3 OUTER ITERATIONS 
       AND A TOTAL OF          5 INNER ITERATIONS.
    ------------------------------------------------

 OUTPUT CONTROL FOR STRESS PERIOD    5   TIME STEP    8
    PRINT BUDGET
    SAVE BUDGET
 UBDSV1 SAVING "         STORAGE" ON UNIT 102 AT TIME STEP 8, STRESS PERIOD 5
 UBDSV2 SAVING "   CONSTANT HEAD" ON UNIT 102 AT TIME STEP 8, STRESS PERIOD 5
 UBDSV1 SAVING "FLOW RIGHT FACE " ON UNIT 102 AT TIME STEP 8, STRESS PERIOD 5
 UBDSV1 SAVING "FLOW FRONT FACE " ON UNIT 102 AT TIME STEP 8, STRESS PERIOD 5

  HEAD DEP BOUNDS   PERIOD    5   STEP     8
 BOUNDARY      1   LAYER   1   ROW    13   COL     1   RATE   -0.289454    
 BOUNDARY      2   LAYER   1   ROW    14   COL     9   RATE    0.287888    



 STREAM LISTING     PERIOD      5   STEP        8

 LAYER ROW COL. STREAM  RCH.  FLOW INTO     FLOW TO   FLOW OUT OF   OVRLND.     DIRECT     STREAM       STREAM     STREAM     STREAM   STREAMBED  STREAMBED
                SEG.NO.  NO.  STRM. RCH.    AQUIFER    STRM. RCH.    RUNOFF     PRECIP       ET          HEAD       DEPTH      WIDTH   CONDCTNC.   GRADIENT

   1    1    1     1     1    1.0500E+01  1.5271E-01   1.0347E+01  0.000E+00  0.000E+00  0.000E+00  1.09396E+03  9.109E-01  8.677E+00  3.905E-02  1.304E+00
   1    2    2     1     2    1.0347E+01  2.3505E-01   1.0112E+01  0.000E+00  0.000E+00  0.000E+00  1.08896E+03  9.059E-01  8.597E+00  6.018E-02  1.302E+00
   1    3    3     1     3    1.0112E+01  1.9904E-01   9.9132E+00  0.000E+00  0.000E+00  0.000E+00  1.08332E+03  9.003E-01  8.505E+00  5.103E-02  1.300E+00
   1    3    4     1     4    9.9132E+00  1.8195E-01   9.7313E+00  0.000E+00  0.000E+00  0.000E+00  1.07830E+03  8.947E-01  8.417E+00  4.672E-02  1.298E+00
   1    4    5     2     1    7.7313E+00  2.8007E-01   7.4512E+00  0.000E+00  0.000E+00  0.000E+00  1.07252E+03  5.907E-01  1.200E+01  7.800E-02  1.197E+00
   1    5    6     2     2    7.4512E+00  2.1474E-01   7.2365E+00  0.000E+00  0.000E+00  0.000E+00  1.06709E+03  5.790E-01  1.200E+01  6.000E-02  1.193E+00
   1    6    6     2     3    7.2365E+00  2.1413E-01   7.0224E+00  0.000E+00  0.000E+00  0.000E+00  1.06236E+03  5.688E-01  1.200E+01  6.000E-02  1.190E+00
   1    7    6     2     4    7.0224E+00  2.1351E-01   6.8088E+00  0.000E+00  0.000E+00  0.000E+00  1.05763E+03  5.585E-01  1.200E+01  6.000E-02  1.186E+00
   1    8    6     2     5    6.8088E+00  2.1289E-01   6.5960E+00  0.000E+00  0.000E+00  0.000E+00  1.05291E+03  5.481E-01  1.200E+01  6.000E-02  1.183E+00
   1    3    5     3     1    2.0000E+00  2.8252E-01   1.7175E+00  0.000E+00  0.000E+00  0.000E+00  1.07555E+03  1.909E+00  9.636E+00  7.227E-02  1.955E+00
   1    3    6     3     2    1.7175E+00  2.4905E-01   1.4684E+00  0.000E+00  0.000E+00  0.000E+00  1.07264E+03  1.727E+00  8.909E+00  6.682E-02  1.864E+00
   1    3    7     3     3    1.4684E+00  1.9718E-01   1.2712E+00  0.000E+00  0.000E+00  0.000E+00  1.06987E+03  1.555E+00  8.218E+00  5.547E-02  1.777E+00
   1    4    8     3     4    1.2712E+00  2.2567E-01   1.0456E+00  0.000E+00  0.000E+00  0.000E+00  1.06682E+03  1.364E+00  7.455E+00  6.709E-02  1.682E+00
   1    5    8     3     5    1.0456E+00  1.5790E-01   8.8768E-01  0.000E+00  0.000E+00  0.000E+00  1.06362E+03  1.164E+00  6.655E+00  4.991E-02  1.582E+00
   1    6    8     3     6    8.8768E-01  5.5980E-02   8.3170E-01  0.000E+00  0.000E+00  0.000E+00  1.06158E+03  1.036E+00  6.145E+00  1.844E-02  1.518E+00
   1    5   10     4     1    1.0000E+01  9.0919E-02   9.9091E+00  0.000E+00  0.000E+00  0.000E+00  1.07836E+03  6.368E-01  1.000E+01  2.500E-02  1.212E+00
   1    5    9     4     2    9.9091E+00  1.8158E-01   9.7275E+00  0.000E+00  0.000E+00  0.000E+00  1.07154E+03  6.315E-01  1.000E+01  5.000E-02  1.211E+00
   1    6    8     4     3    9.7275E+00  1.2689E-01   9.6006E+00  0.000E+00  0.000E+00  0.000E+00  1.06381E+03  6.256E-01  1.000E+01  3.500E-02  1.209E+00
   1    6    8     5     1    1.0432E+01  2.2686E-01   1.0205E+01  0.000E+00  0.000E+00  0.000E+00  1.05868E+03  6.790E-01  1.542E+01  6.166E-02  1.226E+00
   1    7    7     5     2    1.0205E+01  2.7894E-01   9.9265E+00  0.000E+00  0.000E+00  0.000E+00  1.05417E+03  6.732E-01  1.519E+01  7.594E-02  1.224E+00
   1    8    7     5     3    9.9265E+00  1.9221E-01   9.7343E+00  0.000E+00  0.000E+00  0.000E+00  1.04992E+03  6.676E-01  1.497E+01  5.241E-02  1.223E+00
   1    8    6     5     4    9.7343E+00  1.3577E-01   9.5985E+00  0.000E+00  0.000E+00  0.000E+00  1.04691E+03  6.637E-01  1.482E+01  3.706E-02  1.221E+00
   1    9    6     6     1    1.6194E+01  2.3621E-01   1.5958E+01  0.000E+00  0.000E+00  0.000E+00  1.04366E+03  9.369E-01  1.200E+01  6.000E-02  1.312E+00
   1   10    7     6     2    1.5958E+01  2.3572E-01   1.5723E+01  0.000E+00  0.000E+00  0.000E+00  1.03911E+03  9.286E-01  1.200E+01  6.000E-02  1.310E+00
   1   11    7     6     3    1.5723E+01  2.3522E-01   1.5487E+01  0.000E+00  0.000E+00  0.000E+00  1.03456E+03  9.203E-01  1.200E+01  6.000E-02  1.307E+00
   1   12    7     6     4    1.5487E+01  2.3472E-01   1.5253E+01  0.000E+00  0.000E+00  0.000E+00  1.03000E+03  9.120E-01  1.200E+01  6.000E-02  1.304E+00
   1   13    7     6     5    1.5253E+01 -9.8372E-03   1.5262E+01  0.000E+00  0.000E+00  0.000E+00  1.02682E+03  9.079E-01  1.200E+01  2.400E-01 -1.366E-02
   1   14    9     7     1    1.5000E+02  1.3671E+00   1.4863E+02  0.000E+00  0.000E+00  0.000E+00  1.03987E+03  2.288E+00  5.529E+01  5.593E-01  8.148E-01
   1   13    8     7     2    1.4863E+02  1.9167E+00   1.4672E+02  0.000E+00  0.000E+00  0.000E+00  1.03478E+03  2.279E+00  5.526E+01  6.148E-01  1.039E+00
   1   13    7     7     3    1.4672E+02  1.5808E+00   1.4514E+02  0.000E+00  0.000E+00  0.000E+00  1.02969E+03  2.270E+00  5.521E+01  5.584E-01  9.436E-01
   1   13    6     8     1    1.6040E+02  9.6413E-01   1.5943E+02  0.000E+00  0.000E+00  0.000E+00  1.02476E+03  2.885E+00  4.184E+01  4.263E-01  7.538E-01
   1   13    5     8     2    1.5943E+02  2.1305E-01   1.5922E+02  0.000E+00  0.000E+00  0.000E+00  1.01851E+03  2.881E+00  4.178E+01  4.257E-01  1.668E-01
   1   13    4     8     3    1.5922E+02 -2.4202E+00   1.6164E+02  0.000E+00  0.000E+00  0.000E+00  1.01226E+03  2.889E+00  4.189E+01  4.268E+00 -1.890E-01
   1   13    3     8     4    1.6164E+02 -3.7061E+00   1.6535E+02  0.000E+00  0.000E+00  0.000E+00  1.00603E+03  2.909E+00  4.219E+01  4.299E+00 -2.874E-01
   1   13    2     8     5    1.6535E+02 -2.7219E+00   1.6807E+02  0.000E+00  0.000E+00  0.000E+00  9.99806E+02  2.931E+00  4.249E+01  4.330E+00 -2.095E-01
   1   13    1     8     6    1.6807E+02 -2.0788E+00   1.7015E+02  0.000E+00  0.000E+00  0.000E+00  9.94821E+02  2.946E+00  4.272E+01  2.612E+00 -2.653E-01
   1    8    6     9     1    0.0000E+00  0.0000E+00   0.0000E+00  0.000E+00  0.000E+00  0.000E+00  1.07875E+03  0.000E+00  4.000E+00  0.000E+00  1.000E+00
   1    8    5     9     2    0.0000E+00  0.0000E+00   0.0000E+00  0.000E+00  0.000E+00  0.000E+00  1.07825E+03  0.000E+00  4.000E+00  0.000E+00  1.000E+00



 UBDSV3 SAVING "           GW ET" ON UNIT  61 AT TIME STEP 8, STRESS PERIOD 5
 UBDSV3 SAVING "    UZF RECHARGE" ON UNIT  61 AT TIME STEP 8, STRESS PERIOD 5
 UBDSV3 SAVING " SURFACE LEAKAGE" ON UNIT  61 AT TIME STEP 8, STRESS PERIOD 5
 UBDSV3 SAVING "       HORT+DUNN" ON UNIT  61 AT TIME STEP 8, STRESS PERIOD 5
 UBDSV3 SAVING "  STORAGE CHANGE" ON UNIT  61 AT TIME STEP 8, STRESS PERIOD 5


UNSATURATED ZONE PACKAGE VOLUMETRIC BUDGET FOR  TIME STEP     8 STRESS PERIOD    5
  ------------------------------------------------------------------------------



     CUMULATIVE VOLUMES      L**3       RATES FOR THIS TIME STEP      L**3/T
     ------------------                 ------------------------

           IN:                                      IN:
           ---                                      ---
        INFILTRATION =     9963387.4681          INFILTRATION =           4.5675

          OUT:                                     OUT:
          ----                                     ----
              UZF ET =     9806304.8699                UZF ET =           4.5675
        UZF RECHARGE =       73224.0000          UZF RECHARGE =       0.0000E+00

            IN - OUT =       83858.5982              IN - OUT =       0.0000E+00

          STORAGE:                                 STORAGE:
          --------                                 --------
      STORAGE CHANGE =       83858.6509        STORAGE CHANGE =       2.0749E-16

 PERCENT DISCREPANCY IS DIFFERENCE BETWEEN IN-OUT MINUS CHANGE IN STORAGE
 DIVIDED BY THE AVERAGE OF IN AND OUT TIMES 100

 PERCENT DISCREPANCY =          -0.00     PERCENT DISCREPANCY =           0.00






 

            AG WELLS      PERIOD    5   STEP   8
 AG WELL      1   LAYER   1   ROW     6   COL     4   RATE   -0.620000    
 AG WELL      2   LAYER   1   ROW     6   COL     5   RATE   -0.620000    
 AG WELL      3   LAYER   1   ROW     7   COL     4   RATE   -0.620000    
 AG WELL      4   LAYER   1   ROW     7   COL     5   RATE   -0.620000    
 AG WELL      5   LAYER   1   ROW     8   COL     4   RATE   -0.620000    
 AG WELL      6   LAYER   1   ROW     8   COL     5   RATE   -0.620000    
 
 

   DIVERSION SEGMENTS     PERIOD    5   STEP   8
 SEGMENT      9   RATE     0.00000    
 
 

        SW IRRIGATION     PERIOD    5   STEP   8
 SEGMENT      9   ROW     6   COL     4   RATE     0.00000    
 SEGMENT      9   ROW     6   COL     5   RATE     0.00000    
 SEGMENT      9   ROW     7   COL     4   RATE     0.00000    
 SEGMENT      9   ROW     7   COL     5   RATE     0.00000    
 SEGMENT      9   ROW     8   COL     4   RATE     0.00000    
 SEGMENT      9   ROW     8   COL     5   RATE     0.00000    
 
 

        GW IRRIGATION     PERIOD    5   STEP   8
 AG WELL      1   ROW     6   COL     4   RATE    0.620000    
 AG WELL      2   ROW     6   COL     5   RATE    0.620000    
 AG WELL      3   ROW     7   COL     4   RATE    0.620000    
 AG WELL      4   ROW     7   COL     5   RATE    0.620000    
 AG WELL      5   ROW     8   COL     4   RATE    0.620000    
 AG WELL      6   ROW     8   COL     5   RATE    0.620000    
 
1
  VOLUMETRIC BUDGET FOR AGRICULTURAL FIELDS AT  END OF TIME STEP    8, STRESS PERIOD   5
  ------------------------------------------------------------------------------

     CUMULATIVE VOLUMES      L**3       RATES FOR THIS TIME STEP      L**3/T
     ------------------                 ------------------------

           IN:                                      IN:
           ---                                      ---
               AG WELLS  =     2609009.0000                 AG WELLS  =           3.7200
      DIVERSION SEGMENTS =           0.0000        DIVERSION SEGMENTS =           0.0000
       IRRIGATION PONDS  =           0.0000         IRRIGATION PONDS  =           0.0000
           GW IRRIGATION =           0.0000             GW IRRIGATION =           0.0000
           SW IRRIGATION =           0.0000             SW IRRIGATION =           0.0000
        SYSTEM LOSSES GW =           0.0000          SYSTEM LOSSES GW =           0.0000
        SYSTEM LOSSES SW =           0.0000          SYSTEM LOSSES SW =           0.0000

                TOTAL IN =     2609009.0000                  TOTAL IN =           3.7200

          OUT:                                     OUT:
          ----                                     ----
               AG WELLS  =           0.0000                 AG WELLS  =           0.0000
      DIVERSION SEGMENTS =           0.0000        DIVERSION SEGMENTS =           0.0000
       IRRIGATION PONDS  =           0.0000         IRRIGATION PONDS  =           0.0000
           GW IRRIGATION =     2609009.0000             GW IRRIGATION =           3.7200
           SW IRRIGATION =           0.0000             SW IRRIGATION =           0.0000
        SYSTEM LOSSES GW =           0.0000          SYSTEM LOSSES GW =           0.0000
        SYSTEM LOSSES SW =           0.0000          SYSTEM LOSSES SW =           0.0000

               TOTAL OUT =     2609009.0000                 TOTAL OUT =           3.7200

                IN - OUT =           0.0000                  IN - OUT =           0.0000

     PERCENT DISCREPANCY =           0.00         PERCENT DISCREPANCY =           0.00



1
  VOLUMETRIC BUDGET FOR ENTIRE MODEL AT END OF TIME STEP    8, STRESS PERIOD   5
  ------------------------------------------------------------------------------

     CUMULATIVE VOLUMES      L**3       RATES FOR THIS TIME STEP      L**3/T
     ------------------                 ------------------------

           IN:                                      IN:
           ---                                      ---
             STORAGE     =     7557994.5000               STORAGE     =           4.3578
       CONSTANT HEAD     =           0.0000         CONSTANT HEAD     =           0.0000
     HEAD DEP BOUNDS     =     2497686.0000       HEAD DEP BOUNDS     =           0.2879
      STREAM LEAKAGE     =   101373864.0000        STREAM LEAKAGE     =          11.2892
        UZF RECHARGE     =       73223.9531          UZF RECHARGE     =           0.0000
               GW ET     =           0.0000                 GW ET     =           0.0000
     SURFACE LEAKAGE     =           0.0000       SURFACE LEAKAGE     =           0.0000
           AG WELLS      =           0.0000             AG WELLS      =           0.0000

                TOTAL IN =   111502768.0000                  TOTAL IN =          15.9349

          OUT:                                     OUT:
          ----                                     ----
             STORAGE     =    18322948.0000               STORAGE     =           0.9876
       CONSTANT HEAD     =           0.0000         CONSTANT HEAD     =           0.0000
     HEAD DEP BOUNDS     =     2500908.5000       HEAD DEP BOUNDS     =           0.2895
      STREAM LEAKAGE     =    88072952.0000        STREAM LEAKAGE     =          10.9368
        UZF RECHARGE     =           0.0000          UZF RECHARGE     =           0.0000
               GW ET     =           0.0000                 GW ET     =           0.0000
     SURFACE LEAKAGE     =           0.0000       SURFACE LEAKAGE     =           0.0000
           AG WELLS      =     2609009.0000             AG WELLS      =           3.7200

               TOTAL OUT =   111505816.0000                 TOTAL OUT =          15.9339

                IN - OUT =       -3048.0000                  IN - OUT =       9.6798E-04

     PERCENT DISCREPANCY =          -0.00         PERCENT DISCREPANCY =           0.01






         TIME SUMMARY AT END OF TIME STEP    8 IN STRESS PERIOD    5
                    SECONDS     MINUTES      HOURS       DAYS        YEARS
                    -----------------------------------------------------------
   TIME STEP LENGTH  87667.      1461.1      24.352      1.0147     2.77799E-03
 STRESS PERIOD TIME 7.01333E+05  11689.      194.81      8.1173     2.22239E-02
         TOTAL TIME 8.67773E+06 1.44629E+05  2410.5      100.44     0.27498    
1
 
 SOLVING FOR HEAD 
                                                   Max.-Head-Change                         Max.-Flux-Residual
  Residual-Control   Outer-Iter.   Inner-Iter.     Column Row Layer    Maximum-Head-Change  Column Row Layer    Maximum-Flux-Residual          L2-NORM 
          0                 1           2             4    7     1      -0.1073153269E-01       4    7    1        -0.5622943926E+00      0.1298122498E+01
          0                 2           2             4    7     1       0.1043883962E-02       4    7    1         0.5622934000E-01      0.1296063302E+00
          0                 3           1             4    7     1      -0.7108464404E-04       4    7    1        -0.3936056440E-02      0.9053664287E-02

    ------------------------------------------------
       NWT REQUIRED            3 OUTER ITERATIONS 
       AND A TOTAL OF          5 INNER ITERATIONS.
    ------------------------------------------------

 OUTPUT CONTROL FOR STRESS PERIOD    5   TIME STEP    9
    PRINT BUDGET
    SAVE BUDGET
 UBDSV1 SAVING "         STORAGE" ON UNIT 102 AT TIME STEP 9, STRESS PERIOD 5
 UBDSV2 SAVING "   CONSTANT HEAD" ON UNIT 102 AT TIME STEP 9, STRESS PERIOD 5
 UBDSV1 SAVING "FLOW RIGHT FACE " ON UNIT 102 AT TIME STEP 9, STRESS PERIOD 5
 UBDSV1 SAVING "FLOW FRONT FACE " ON UNIT 102 AT TIME STEP 9, STRESS PERIOD 5

  HEAD DEP BOUNDS   PERIOD    5   STEP     9
 BOUNDARY      1   LAYER   1   ROW    13   COL     1   RATE   -0.289379    
 BOUNDARY      2   LAYER   1   ROW    14   COL     9   RATE    0.287889    



 STREAM LISTING     PERIOD      5   STEP        9

 LAYER ROW COL. STREAM  RCH.  FLOW INTO     FLOW TO   FLOW OUT OF   OVRLND.     DIRECT     STREAM       STREAM     STREAM     STREAM   STREAMBED  STREAMBED
                SEG.NO.  NO.  STRM. RCH.    AQUIFER    STRM. RCH.    RUNOFF     PRECIP       ET          HEAD       DEPTH      WIDTH   CONDCTNC.   GRADIENT

   1    1    1     1     1    1.0500E+01  1.5271E-01   1.0347E+01  0.000E+00  0.000E+00  0.000E+00  1.09396E+03  9.109E-01  8.677E+00  3.905E-02  1.304E+00
   1    2    2     1     2    1.0347E+01  2.3505E-01   1.0112E+01  0.000E+00  0.000E+00  0.000E+00  1.08896E+03  9.059E-01  8.597E+00  6.018E-02  1.302E+00
   1    3    3     1     3    1.0112E+01  1.9904E-01   9.9132E+00  0.000E+00  0.000E+00  0.000E+00  1.08332E+03  9.003E-01  8.505E+00  5.103E-02  1.300E+00
   1    3    4     1     4    9.9132E+00  1.8195E-01   9.7313E+00  0.000E+00  0.000E+00  0.000E+00  1.07830E+03  8.947E-01  8.417E+00  4.672E-02  1.298E+00
   1    4    5     2     1    7.7313E+00  2.8007E-01   7.4512E+00  0.000E+00  0.000E+00  0.000E+00  1.07252E+03  5.907E-01  1.200E+01  7.800E-02  1.197E+00
   1    5    6     2     2    7.4512E+00  2.1474E-01   7.2365E+00  0.000E+00  0.000E+00  0.000E+00  1.06709E+03  5.790E-01  1.200E+01  6.000E-02  1.193E+00
   1    6    6     2     3    7.2365E+00  2.1413E-01   7.0224E+00  0.000E+00  0.000E+00  0.000E+00  1.06236E+03  5.688E-01  1.200E+01  6.000E-02  1.190E+00
   1    7    6     2     4    7.0224E+00  2.1351E-01   6.8088E+00  0.000E+00  0.000E+00  0.000E+00  1.05763E+03  5.585E-01  1.200E+01  6.000E-02  1.186E+00
   1    8    6     2     5    6.8088E+00  2.1289E-01   6.5960E+00  0.000E+00  0.000E+00  0.000E+00  1.05291E+03  5.481E-01  1.200E+01  6.000E-02  1.183E+00
   1    3    5     3     1    2.0000E+00  2.8252E-01   1.7175E+00  0.000E+00  0.000E+00  0.000E+00  1.07555E+03  1.909E+00  9.636E+00  7.227E-02  1.955E+00
   1    3    6     3     2    1.7175E+00  2.4905E-01   1.4684E+00  0.000E+00  0.000E+00  0.000E+00  1.07264E+03  1.727E+00  8.909E+00  6.682E-02  1.864E+00
   1    3    7     3     3    1.4684E+00  1.9718E-01   1.2712E+00  0.000E+00  0.000E+00  0.000E+00  1.06987E+03  1.555E+00  8.218E+00  5.547E-02  1.777E+00
   1    4    8     3     4    1.2712E+00  2.2567E-01   1.0456E+00  0.000E+00  0.000E+00  0.000E+00  1.06682E+03  1.364E+00  7.455E+00  6.709E-02  1.682E+00
   1    5    8     3     5    1.0456E+00  1.5790E-01   8.8768E-01  0.000E+00  0.000E+00  0.000E+00  1.06362E+03  1.164E+00  6.655E+00  4.991E-02  1.582E+00
   1    6    8     3     6    8.8768E-01  5.5980E-02   8.3170E-01  0.000E+00  0.000E+00  0.000E+00  1.06158E+03  1.036E+00  6.145E+00  1.844E-02  1.518E+00
   1    5   10     4     1    1.0000E+01  9.0919E-02   9.9091E+00  0.000E+00  0.000E+00  0.000E+00  1.07836E+03  6.368E-01  1.000E+01  2.500E-02  1.212E+00
   1    5    9     4     2    9.9091E+00  1.8158E-01   9.7275E+00  0.000E+00  0.000E+00  0.000E+00  1.07154E+03  6.315E-01  1.000E+01  5.000E-02  1.211E+00
   1    6    8     4     3    9.7275E+00  1.2689E-01   9.6006E+00  0.000E+00  0.000E+00  0.000E+00  1.06381E+03  6.256E-01  1.000E+01  3.500E-02  1.209E+00
   1    6    8     5     1    1.0432E+01  2.2686E-01   1.0205E+01  0.000E+00  0.000E+00  0.000E+00  1.05868E+03  6.790E-01  1.542E+01  6.166E-02  1.226E+00
   1    7    7     5     2    1.0205E+01  2.7894E-01   9.9265E+00  0.000E+00  0.000E+00  0.000E+00  1.05417E+03  6.732E-01  1.519E+01  7.594E-02  1.224E+00
   1    8    7     5     3    9.9265E+00  1.9221E-01   9.7343E+00  0.000E+00  0.000E+00  0.000E+00  1.04992E+03  6.676E-01  1.497E+01  5.241E-02  1.223E+00
   1    8    6     5     4    9.7343E+00  1.3577E-01   9.5985E+00  0.000E+00  0.000E+00  0.000E+00  1.04691E+03  6.637E-01  1.482E+01  3.706E-02  1.221E+00
   1    9    6     6     1    1.6194E+01  2.3621E-01   1.5958E+01  0.000E+00  0.000E+00  0.000E+00  1.04366E+03  9.369E-01  1.200E+01  6.000E-02  1.312E+00
   1   10    7     6     2    1.5958E+01  2.3572E-01   1.5723E+01  0.000E+00  0.000E+00  0.000E+00  1.03911E+03  9.286E-01  1.200E+01  6.000E-02  1.310E+00
   1   11    7     6     3    1.5723E+01  2.3522E-01   1.5487E+01  0.000E+00  0.000E+00  0.000E+00  1.03456E+03  9.203E-01  1.200E+01  6.000E-02  1.307E+00
   1   12    7     6     4    1.5487E+01  2.3472E-01   1.5253E+01  0.000E+00  0.000E+00  0.000E+00  1.03000E+03  9.120E-01  1.200E+01  6.000E-02  1.304E+00
   1   13    7     6     5    1.5253E+01 -9.8375E-03   1.5262E+01  0.000E+00  0.000E+00  0.000E+00  1.02682E+03  9.079E-01  1.200E+01  2.400E-01 -1.366E-02
   1   14    9     7     1    1.5000E+02  1.3671E+00   1.4863E+02  0.000E+00  0.000E+00  0.000E+00  1.03987E+03  2.288E+00  5.529E+01  5.593E-01  8.148E-01
   1   13    8     7     2    1.4863E+02  1.9167E+00   1.4672E+02  0.000E+00  0.000E+00  0.000E+00  1.03478E+03  2.279E+00  5.526E+01  6.148E-01  1.039E+00
   1   13    7     7     3    1.4672E+02  1.5808E+00   1.4514E+02  0.000E+00  0.000E+00  0.000E+00  1.02969E+03  2.270E+00  5.521E+01  5.584E-01  9.436E-01
   1   13    6     8     1    1.6040E+02  9.6435E-01   1.5943E+02  0.000E+00  0.000E+00  0.000E+00  1.02476E+03  2.885E+00  4.184E+01  4.263E-01  7.540E-01
   1   13    5     8     2    1.5943E+02  2.1327E-01   1.5922E+02  0.000E+00  0.000E+00  0.000E+00  1.01851E+03  2.881E+00  4.178E+01  4.257E-01  1.670E-01
   1   13    4     8     3    1.5922E+02 -2.4091E+00   1.6163E+02  0.000E+00  0.000E+00  0.000E+00  1.01226E+03  2.889E+00  4.189E+01  4.268E+00 -1.881E-01
   1   13    3     8     4    1.6163E+02 -3.6952E+00   1.6532E+02  0.000E+00  0.000E+00  0.000E+00  1.00603E+03  2.909E+00  4.218E+01  4.299E+00 -2.865E-01
   1   13    2     8     5    1.6532E+02 -2.7098E+00   1.6803E+02  0.000E+00  0.000E+00  0.000E+00  9.99805E+02  2.930E+00  4.249E+01  4.330E+00 -2.086E-01
   1   13    1     8     6    1.6803E+02 -2.0741E+00   1.7011E+02  0.000E+00  0.000E+00  0.000E+00  9.94821E+02  2.946E+00  4.272E+01  2.612E+00 -2.647E-01
   1    8    6     9     1    0.0000E+00  0.0000E+00   0.0000E+00  0.000E+00  0.000E+00  0.000E+00  1.07875E+03  0.000E+00  4.000E+00  0.000E+00  1.000E+00
   1    8    5     9     2    0.0000E+00  0.0000E+00   0.0000E+00  0.000E+00  0.000E+00  0.000E+00  1.07825E+03  0.000E+00  4.000E+00  0.000E+00  1.000E+00



 UBDSV3 SAVING "           GW ET" ON UNIT  61 AT TIME STEP 9, STRESS PERIOD 5
 UBDSV3 SAVING "    UZF RECHARGE" ON UNIT  61 AT TIME STEP 9, STRESS PERIOD 5
 UBDSV3 SAVING " SURFACE LEAKAGE" ON UNIT  61 AT TIME STEP 9, STRESS PERIOD 5
 UBDSV3 SAVING "       HORT+DUNN" ON UNIT  61 AT TIME STEP 9, STRESS PERIOD 5
 UBDSV3 SAVING "  STORAGE CHANGE" ON UNIT  61 AT TIME STEP 9, STRESS PERIOD 5


UNSATURATED ZONE PACKAGE VOLUMETRIC BUDGET FOR  TIME STEP     9 STRESS PERIOD    5
  ------------------------------------------------------------------------------



     CUMULATIVE VOLUMES      L**3       RATES FOR THIS TIME STEP      L**3/T
     ------------------                 ------------------------

           IN:                                      IN:
           ---                                      ---
        INFILTRATION =    10363804.9483          INFILTRATION =           4.5675

          OUT:                                     OUT:
          ----                                     ----
              UZF ET =    10206722.3501                UZF ET =           4.5675
        UZF RECHARGE =       73224.0000          UZF RECHARGE =       0.0000E+00

            IN - OUT =       83858.5982              IN - OUT =       0.0000E+00

          STORAGE:                                 STORAGE:
          --------                                 --------
      STORAGE CHANGE =       83858.6509        STORAGE CHANGE =       0.0000E+00

 PERCENT DISCREPANCY IS DIFFERENCE BETWEEN IN-OUT MINUS CHANGE IN STORAGE
 DIVIDED BY THE AVERAGE OF IN AND OUT TIMES 100

 PERCENT DISCREPANCY =           0.00     PERCENT DISCREPANCY =           0.00






 

            AG WELLS      PERIOD    5   STEP   9
 AG WELL      1   LAYER   1   ROW     6   COL     4   RATE   -0.620000    
 AG WELL      2   LAYER   1   ROW     6   COL     5   RATE   -0.620000    
 AG WELL      3   LAYER   1   ROW     7   COL     4   RATE   -0.620000    
 AG WELL      4   LAYER   1   ROW     7   COL     5   RATE   -0.620000    
 AG WELL      5   LAYER   1   ROW     8   COL     4   RATE   -0.620000    
 AG WELL      6   LAYER   1   ROW     8   COL     5   RATE   -0.620000    
 
 

   DIVERSION SEGMENTS     PERIOD    5   STEP   9
 SEGMENT      9   RATE     0.00000    
 
 

        SW IRRIGATION     PERIOD    5   STEP   9
 SEGMENT      9   ROW     6   COL     4   RATE     0.00000    
 SEGMENT      9   ROW     6   COL     5   RATE     0.00000    
 SEGMENT      9   ROW     7   COL     4   RATE     0.00000    
 SEGMENT      9   ROW     7   COL     5   RATE     0.00000    
 SEGMENT      9   ROW     8   COL     4   RATE     0.00000    
 SEGMENT      9   ROW     8   COL     5   RATE     0.00000    
 
 

        GW IRRIGATION     PERIOD    5   STEP   9
 AG WELL      1   ROW     6   COL     4   RATE    0.620000    
 AG WELL      2   ROW     6   COL     5   RATE    0.620000    
 AG WELL      3   ROW     7   COL     4   RATE    0.620000    
 AG WELL      4   ROW     7   COL     5   RATE    0.620000    
 AG WELL      5   ROW     8   COL     4   RATE    0.620000    
 AG WELL      6   ROW     8   COL     5   RATE    0.620000    
 
1
  VOLUMETRIC BUDGET FOR AGRICULTURAL FIELDS AT  END OF TIME STEP    9, STRESS PERIOD   5
  ------------------------------------------------------------------------------

     CUMULATIVE VOLUMES      L**3       RATES FOR THIS TIME STEP      L**3/T
     ------------------                 ------------------------

           IN:                                      IN:
           ---                                      ---
               AG WELLS  =     2935129.0000                 AG WELLS  =           3.7200
      DIVERSION SEGMENTS =           0.0000        DIVERSION SEGMENTS =           0.0000
       IRRIGATION PONDS  =           0.0000         IRRIGATION PONDS  =           0.0000
           GW IRRIGATION =           0.0000             GW IRRIGATION =           0.0000
           SW IRRIGATION =           0.0000             SW IRRIGATION =           0.0000
        SYSTEM LOSSES GW =           0.0000          SYSTEM LOSSES GW =           0.0000
        SYSTEM LOSSES SW =           0.0000          SYSTEM LOSSES SW =           0.0000

                TOTAL IN =     2935129.0000                  TOTAL IN =           3.7200

          OUT:                                     OUT:
          ----                                     ----
               AG WELLS  =           0.0000                 AG WELLS  =           0.0000
      DIVERSION SEGMENTS =           0.0000        DIVERSION SEGMENTS =           0.0000
       IRRIGATION PONDS  =           0.0000         IRRIGATION PONDS  =           0.0000
           GW IRRIGATION =     2935129.0000             GW IRRIGATION =           3.7200
           SW IRRIGATION =           0.0000             SW IRRIGATION =           0.0000
        SYSTEM LOSSES GW =           0.0000          SYSTEM LOSSES GW =           0.0000
        SYSTEM LOSSES SW =           0.0000          SYSTEM LOSSES SW =           0.0000

               TOTAL OUT =     2935129.0000                 TOTAL OUT =           3.7200

                IN - OUT =           0.0000                  IN - OUT =           0.0000

     PERCENT DISCREPANCY =           0.00         PERCENT DISCREPANCY =           0.00



1
  VOLUMETRIC BUDGET FOR ENTIRE MODEL AT END OF TIME STEP    9, STRESS PERIOD   5
  ------------------------------------------------------------------------------

     CUMULATIVE VOLUMES      L**3       RATES FOR THIS TIME STEP      L**3/T
     ------------------                 ------------------------

           IN:                                      IN:
           ---                                      ---
             STORAGE     =     7934863.0000               STORAGE     =           4.2989
       CONSTANT HEAD     =           0.0000         CONSTANT HEAD     =           0.0000
     HEAD DEP BOUNDS     =     2522924.2500       HEAD DEP BOUNDS     =           0.2879
      STREAM LEAKAGE     =   102363584.0000        STREAM LEAKAGE     =          11.2896
        UZF RECHARGE     =       73223.9531          UZF RECHARGE     =           0.0000
               GW ET     =           0.0000                 GW ET     =           0.0000
     SURFACE LEAKAGE     =           0.0000       SURFACE LEAKAGE     =           0.0000
           AG WELLS      =           0.0000             AG WELLS      =           0.0000

                TOTAL IN =   112894592.0000                  TOTAL IN =          15.8764

          OUT:                                     OUT:
          ----                                     ----
             STORAGE     =    18407806.0000               STORAGE     =           0.9680
       CONSTANT HEAD     =           0.0000         CONSTANT HEAD     =           0.0000
     HEAD DEP BOUNDS     =     2526277.5000       HEAD DEP BOUNDS     =           0.2894
      STREAM LEAKAGE     =    89028352.0000        STREAM LEAKAGE     =          10.8981
        UZF RECHARGE     =           0.0000          UZF RECHARGE     =           0.0000
               GW ET     =           0.0000                 GW ET     =           0.0000
     SURFACE LEAKAGE     =           0.0000       SURFACE LEAKAGE     =           0.0000
           AG WELLS      =     2935129.0000             AG WELLS      =           3.7200

               TOTAL OUT =   112897560.0000                 TOTAL OUT =          15.8754

                IN - OUT =       -2968.0000                  IN - OUT =       9.5654E-04

     PERCENT DISCREPANCY =          -0.00         PERCENT DISCREPANCY =           0.01






         TIME SUMMARY AT END OF TIME STEP    9 IN STRESS PERIOD    5
                    SECONDS     MINUTES      HOURS       DAYS        YEARS
                    -----------------------------------------------------------
   TIME STEP LENGTH  87667.      1461.1      24.352      1.0147     2.77799E-03
 STRESS PERIOD TIME 7.89000E+05  13150.      219.17      9.1319     2.50019E-02
         TOTAL TIME 8.76540E+06 1.46090E+05  2434.8      101.45     0.27776    
1
 
 SOLVING FOR HEAD 
                                                   Max.-Head-Change                         Max.-Flux-Residual
  Residual-Control   Outer-Iter.   Inner-Iter.     Column Row Layer    Maximum-Head-Change  Column Row Layer    Maximum-Flux-Residual          L2-NORM 
          0                 1           2             4    7     1      -0.1063898624E-01       4    7    1        -0.5576014329E+00      0.1273159034E+01
          0                 2           2             4    7     1       0.1034881677E-02       4    7    1         0.5576004122E-01      0.1271356445E+00
          0                 3           1             4    7     1      -0.7047162192E-04       4    7    1        -0.3903205543E-02      0.8883150821E-02

    ------------------------------------------------
       NWT REQUIRED            3 OUTER ITERATIONS 
       AND A TOTAL OF          5 INNER ITERATIONS.
    ------------------------------------------------

 OUTPUT CONTROL FOR STRESS PERIOD    5   TIME STEP   10
    PRINT BUDGET
    SAVE BUDGET
 UBDSV1 SAVING "         STORAGE" ON UNIT 102 AT TIME STEP 10, STRESS PERIOD 5
 UBDSV2 SAVING "   CONSTANT HEAD" ON UNIT 102 AT TIME STEP 10, STRESS PERIOD 5
 UBDSV1 SAVING "FLOW RIGHT FACE " ON UNIT 102 AT TIME STEP 10, STRESS PERIOD 5
 UBDSV1 SAVING "FLOW FRONT FACE " ON UNIT 102 AT TIME STEP 10, STRESS PERIOD 5

  HEAD DEP BOUNDS   PERIOD    5   STEP    10
 BOUNDARY      1   LAYER   1   ROW    13   COL     1   RATE   -0.289308    
 BOUNDARY      2   LAYER   1   ROW    14   COL     9   RATE    0.287890    



 STREAM LISTING     PERIOD      5   STEP       10

 LAYER ROW COL. STREAM  RCH.  FLOW INTO     FLOW TO   FLOW OUT OF   OVRLND.     DIRECT     STREAM       STREAM     STREAM     STREAM   STREAMBED  STREAMBED
                SEG.NO.  NO.  STRM. RCH.    AQUIFER    STRM. RCH.    RUNOFF     PRECIP       ET          HEAD       DEPTH      WIDTH   CONDCTNC.   GRADIENT

   1    1    1     1     1    1.0500E+01  1.5271E-01   1.0347E+01  0.000E+00  0.000E+00  0.000E+00  1.09396E+03  9.109E-01  8.677E+00  3.905E-02  1.304E+00
   1    2    2     1     2    1.0347E+01  2.3505E-01   1.0112E+01  0.000E+00  0.000E+00  0.000E+00  1.08896E+03  9.059E-01  8.597E+00  6.018E-02  1.302E+00
   1    3    3     1     3    1.0112E+01  1.9904E-01   9.9132E+00  0.000E+00  0.000E+00  0.000E+00  1.08332E+03  9.003E-01  8.505E+00  5.103E-02  1.300E+00
   1    3    4     1     4    9.9132E+00  1.8195E-01   9.7313E+00  0.000E+00  0.000E+00  0.000E+00  1.07830E+03  8.947E-01  8.417E+00  4.672E-02  1.298E+00
   1    4    5     2     1    7.7313E+00  2.8007E-01   7.4512E+00  0.000E+00  0.000E+00  0.000E+00  1.07252E+03  5.907E-01  1.200E+01  7.800E-02  1.197E+00
   1    5    6     2     2    7.4512E+00  2.1474E-01   7.2365E+00  0.000E+00  0.000E+00  0.000E+00  1.06709E+03  5.790E-01  1.200E+01  6.000E-02  1.193E+00
   1    6    6     2     3    7.2365E+00  2.1413E-01   7.0224E+00  0.000E+00  0.000E+00  0.000E+00  1.06236E+03  5.688E-01  1.200E+01  6.000E-02  1.190E+00
   1    7    6     2     4    7.0224E+00  2.1351E-01   6.8088E+00  0.000E+00  0.000E+00  0.000E+00  1.05763E+03  5.585E-01  1.200E+01  6.000E-02  1.186E+00
   1    8    6     2     5    6.8088E+00  2.1289E-01   6.5960E+00  0.000E+00  0.000E+00  0.000E+00  1.05291E+03  5.481E-01  1.200E+01  6.000E-02  1.183E+00
   1    3    5     3     1    2.0000E+00  2.8252E-01   1.7175E+00  0.000E+00  0.000E+00  0.000E+00  1.07555E+03  1.909E+00  9.636E+00  7.227E-02  1.955E+00
   1    3    6     3     2    1.7175E+00  2.4905E-01   1.4684E+00  0.000E+00  0.000E+00  0.000E+00  1.07264E+03  1.727E+00  8.909E+00  6.682E-02  1.864E+00
   1    3    7     3     3    1.4684E+00  1.9718E-01   1.2712E+00  0.000E+00  0.000E+00  0.000E+00  1.06987E+03  1.555E+00  8.218E+00  5.547E-02  1.777E+00
   1    4    8     3     4    1.2712E+00  2.2567E-01   1.0456E+00  0.000E+00  0.000E+00  0.000E+00  1.06682E+03  1.364E+00  7.455E+00  6.709E-02  1.682E+00
   1    5    8     3     5    1.0456E+00  1.5790E-01   8.8768E-01  0.000E+00  0.000E+00  0.000E+00  1.06362E+03  1.164E+00  6.655E+00  4.991E-02  1.582E+00
   1    6    8     3     6    8.8768E-01  5.5980E-02   8.3170E-01  0.000E+00  0.000E+00  0.000E+00  1.06158E+03  1.036E+00  6.145E+00  1.844E-02  1.518E+00
   1    5   10     4     1    1.0000E+01  9.0919E-02   9.9091E+00  0.000E+00  0.000E+00  0.000E+00  1.07836E+03  6.368E-01  1.000E+01  2.500E-02  1.212E+00
   1    5    9     4     2    9.9091E+00  1.8158E-01   9.7275E+00  0.000E+00  0.000E+00  0.000E+00  1.07154E+03  6.315E-01  1.000E+01  5.000E-02  1.211E+00
   1    6    8     4     3    9.7275E+00  1.2689E-01   9.6006E+00  0.000E+00  0.000E+00  0.000E+00  1.06381E+03  6.256E-01  1.000E+01  3.500E-02  1.209E+00
   1    6    8     5     1    1.0432E+01  2.2686E-01   1.0205E+01  0.000E+00  0.000E+00  0.000E+00  1.05868E+03  6.790E-01  1.542E+01  6.166E-02  1.226E+00
   1    7    7     5     2    1.0205E+01  2.7894E-01   9.9265E+00  0.000E+00  0.000E+00  0.000E+00  1.05417E+03  6.732E-01  1.519E+01  7.594E-02  1.224E+00
   1    8    7     5     3    9.9265E+00  1.9221E-01   9.7343E+00  0.000E+00  0.000E+00  0.000E+00  1.04992E+03  6.676E-01  1.497E+01  5.241E-02  1.223E+00
   1    8    6     5     4    9.7343E+00  1.3577E-01   9.5985E+00  0.000E+00  0.000E+00  0.000E+00  1.04691E+03  6.637E-01  1.482E+01  3.706E-02  1.221E+00
   1    9    6     6     1    1.6194E+01  2.3621E-01   1.5958E+01  0.000E+00  0.000E+00  0.000E+00  1.04366E+03  9.369E-01  1.200E+01  6.000E-02  1.312E+00
   1   10    7     6     2    1.5958E+01  2.3572E-01   1.5723E+01  0.000E+00  0.000E+00  0.000E+00  1.03911E+03  9.286E-01  1.200E+01  6.000E-02  1.310E+00
   1   11    7     6     3    1.5723E+01  2.3522E-01   1.5487E+01  0.000E+00  0.000E+00  0.000E+00  1.03456E+03  9.203E-01  1.200E+01  6.000E-02  1.307E+00
   1   12    7     6     4    1.5487E+01  2.3472E-01   1.5253E+01  0.000E+00  0.000E+00  0.000E+00  1.03000E+03  9.120E-01  1.200E+01  6.000E-02  1.304E+00
   1   13    7     6     5    1.5253E+01 -9.8367E-03   1.5262E+01  0.000E+00  0.000E+00  0.000E+00  1.02682E+03  9.079E-01  1.200E+01  2.400E-01 -1.366E-02
   1   14    9     7     1    1.5000E+02  1.3671E+00   1.4863E+02  0.000E+00  0.000E+00  0.000E+00  1.03987E+03  2.288E+00  5.529E+01  5.593E-01  8.148E-01
   1   13    8     7     2    1.4863E+02  1.9166E+00   1.4672E+02  0.000E+00  0.000E+00  0.000E+00  1.03478E+03  2.279E+00  5.526E+01  6.148E-01  1.039E+00
   1   13    7     7     3    1.4672E+02  1.5808E+00   1.4514E+02  0.000E+00  0.000E+00  0.000E+00  1.02969E+03  2.270E+00  5.521E+01  5.584E-01  9.436E-01
   1   13    6     8     1    1.6040E+02  9.6457E-01   1.5943E+02  0.000E+00  0.000E+00  0.000E+00  1.02476E+03  2.885E+00  4.184E+01  4.263E-01  7.542E-01
   1   13    5     8     2    1.5943E+02  2.1350E-01   1.5922E+02  0.000E+00  0.000E+00  0.000E+00  1.01851E+03  2.881E+00  4.178E+01  4.257E-01  1.672E-01
   1   13    4     8     3    1.5922E+02 -2.3989E+00   1.6162E+02  0.000E+00  0.000E+00  0.000E+00  1.01226E+03  2.889E+00  4.189E+01  4.268E+00 -1.873E-01
   1   13    3     8     4    1.6162E+02 -3.6853E+00   1.6530E+02  0.000E+00  0.000E+00  0.000E+00  1.00603E+03  2.909E+00  4.218E+01  4.298E+00 -2.858E-01
   1   13    2     8     5    1.6530E+02 -2.6986E+00   1.6800E+02  0.000E+00  0.000E+00  0.000E+00  9.99805E+02  2.930E+00  4.249E+01  4.330E+00 -2.078E-01
   1   13    1     8     6    1.6800E+02 -2.0696E+00   1.7007E+02  0.000E+00  0.000E+00  0.000E+00  9.94821E+02  2.946E+00  4.272E+01  2.612E+00 -2.641E-01
   1    8    6     9     1    0.0000E+00  0.0000E+00   0.0000E+00  0.000E+00  0.000E+00  0.000E+00  1.07875E+03  0.000E+00  4.000E+00  0.000E+00  1.000E+00
   1    8    5     9     2    0.0000E+00  0.0000E+00   0.0000E+00  0.000E+00  0.000E+00  0.000E+00  1.07825E+03  0.000E+00  4.000E+00  0.000E+00  1.000E+00



 UBDSV3 SAVING "           GW ET" ON UNIT  61 AT TIME STEP 10, STRESS PERIOD 5
 UBDSV3 SAVING "    UZF RECHARGE" ON UNIT  61 AT TIME STEP 10, STRESS PERIOD 5
 UBDSV3 SAVING " SURFACE LEAKAGE" ON UNIT  61 AT TIME STEP 10, STRESS PERIOD 5
 UBDSV3 SAVING "       HORT+DUNN" ON UNIT  61 AT TIME STEP 10, STRESS PERIOD 5
 UBDSV3 SAVING "  STORAGE CHANGE" ON UNIT  61 AT TIME STEP 10, STRESS PERIOD 5


UNSATURATED ZONE PACKAGE VOLUMETRIC BUDGET FOR  TIME STEP    10 STRESS PERIOD    5
  ------------------------------------------------------------------------------



     CUMULATIVE VOLUMES      L**3       RATES FOR THIS TIME STEP      L**3/T
     ------------------                 ------------------------

           IN:                                      IN:
           ---                                      ---
        INFILTRATION =    10764222.4286          INFILTRATION =           4.5675

          OUT:                                     OUT:
          ----                                     ----
              UZF ET =    10607139.8304                UZF ET =           4.5675
        UZF RECHARGE =       73224.0000          UZF RECHARGE =       0.0000E+00

            IN - OUT =       83858.5982              IN - OUT =       0.0000E+00

          STORAGE:                                 STORAGE:
          --------                                 --------
      STORAGE CHANGE =       83858.6509        STORAGE CHANGE =       2.0749E-17

 PERCENT DISCREPANCY IS DIFFERENCE BETWEEN IN-OUT MINUS CHANGE IN STORAGE
 DIVIDED BY THE AVERAGE OF IN AND OUT TIMES 100

 PERCENT DISCREPANCY =           0.00     PERCENT DISCREPANCY =           0.00






 

            AG WELLS      PERIOD    5   STEP  10
 AG WELL      1   LAYER   1   ROW     6   COL     4   RATE   -0.620000    
 AG WELL      2   LAYER   1   ROW     6   COL     5   RATE   -0.620000    
 AG WELL      3   LAYER   1   ROW     7   COL     4   RATE   -0.620000    
 AG WELL      4   LAYER   1   ROW     7   COL     5   RATE   -0.620000    
 AG WELL      5   LAYER   1   ROW     8   COL     4   RATE   -0.620000    
 AG WELL      6   LAYER   1   ROW     8   COL     5   RATE   -0.620000    
 
 

   DIVERSION SEGMENTS     PERIOD    5   STEP  10
 SEGMENT      9   RATE     0.00000    
 
 

        SW IRRIGATION     PERIOD    5   STEP  10
 SEGMENT      9   ROW     6   COL     4   RATE     0.00000    
 SEGMENT      9   ROW     6   COL     5   RATE     0.00000    
 SEGMENT      9   ROW     7   COL     4   RATE     0.00000    
 SEGMENT      9   ROW     7   COL     5   RATE     0.00000    
 SEGMENT      9   ROW     8   COL     4   RATE     0.00000    
 SEGMENT      9   ROW     8   COL     5   RATE     0.00000    
 
 

        GW IRRIGATION     PERIOD    5   STEP  10
 AG WELL      1   ROW     6   COL     4   RATE    0.620000    
 AG WELL      2   ROW     6   COL     5   RATE    0.620000    
 AG WELL      3   ROW     7   COL     4   RATE    0.620000    
 AG WELL      4   ROW     7   COL     5   RATE    0.620000    
 AG WELL      5   ROW     8   COL     4   RATE    0.620000    
 AG WELL      6   ROW     8   COL     5   RATE    0.620000    
 
1
  VOLUMETRIC BUDGET FOR AGRICULTURAL FIELDS AT  END OF TIME STEP   10, STRESS PERIOD   5
  ------------------------------------------------------------------------------

     CUMULATIVE VOLUMES      L**3       RATES FOR THIS TIME STEP      L**3/T
     ------------------                 ------------------------

           IN:                                      IN:
           ---                                      ---
               AG WELLS  =     3261249.0000                 AG WELLS  =           3.7200
      DIVERSION SEGMENTS =           0.0000        DIVERSION SEGMENTS =           0.0000
       IRRIGATION PONDS  =           0.0000         IRRIGATION PONDS  =           0.0000
           GW IRRIGATION =           0.0000             GW IRRIGATION =           0.0000
           SW IRRIGATION =           0.0000             SW IRRIGATION =           0.0000
        SYSTEM LOSSES GW =           0.0000          SYSTEM LOSSES GW =           0.0000
        SYSTEM LOSSES SW =           0.0000          SYSTEM LOSSES SW =           0.0000

                TOTAL IN =     3261249.0000                  TOTAL IN =           3.7200

          OUT:                                     OUT:
          ----                                     ----
               AG WELLS  =           0.0000                 AG WELLS  =           0.0000
      DIVERSION SEGMENTS =           0.0000        DIVERSION SEGMENTS =           0.0000
       IRRIGATION PONDS  =           0.0000         IRRIGATION PONDS  =           0.0000
           GW IRRIGATION =     3261249.0000             GW IRRIGATION =           3.7200
           SW IRRIGATION =           0.0000             SW IRRIGATION =           0.0000
        SYSTEM LOSSES GW =           0.0000          SYSTEM LOSSES GW =           0.0000
        SYSTEM LOSSES SW =           0.0000          SYSTEM LOSSES SW =           0.0000

               TOTAL OUT =     3261249.0000                 TOTAL OUT =           3.7200

                IN - OUT =           0.0000                  IN - OUT =           0.0000

     PERCENT DISCREPANCY =           0.00         PERCENT DISCREPANCY =           0.00



1
  VOLUMETRIC BUDGET FOR ENTIRE MODEL AT END OF TIME STEP   10, STRESS PERIOD   5
  ------------------------------------------------------------------------------

     CUMULATIVE VOLUMES      L**3       RATES FOR THIS TIME STEP      L**3/T
     ------------------                 ------------------------

           IN:                                      IN:
           ---                                      ---
             STORAGE     =     8307173.0000               STORAGE     =           4.2469
       CONSTANT HEAD     =           0.0000         CONSTANT HEAD     =           0.0000
     HEAD DEP BOUNDS     =     2548162.5000       HEAD DEP BOUNDS     =           0.2879
      STREAM LEAKAGE     =   103353344.0000        STREAM LEAKAGE     =          11.2900
        UZF RECHARGE     =       73223.9531          UZF RECHARGE     =           0.0000
               GW ET     =           0.0000                 GW ET     =           0.0000
     SURFACE LEAKAGE     =           0.0000       SURFACE LEAKAGE     =           0.0000
           AG WELLS      =           0.0000             AG WELLS      =           0.0000

                TOTAL IN =   114281904.0000                  TOTAL IN =          15.8248

          OUT:                                     OUT:
          ----                                     ----
             STORAGE     =    18491292.0000               STORAGE     =           0.9523
       CONSTANT HEAD     =           0.0000         CONSTANT HEAD     =           0.0000
     HEAD DEP BOUNDS     =     2551640.2500       HEAD DEP BOUNDS     =           0.2893
      STREAM LEAKAGE     =    89980608.0000        STREAM LEAKAGE     =          10.8622
        UZF RECHARGE     =           0.0000          UZF RECHARGE     =           0.0000
               GW ET     =           0.0000                 GW ET     =           0.0000
     SURFACE LEAKAGE     =           0.0000       SURFACE LEAKAGE     =           0.0000
           AG WELLS      =     3261249.0000             AG WELLS      =           3.7200

               TOTAL OUT =   114284784.0000                 TOTAL OUT =          15.8238

                IN - OUT =       -2880.0000                  IN - OUT =       9.4604E-04

     PERCENT DISCREPANCY =          -0.00         PERCENT DISCREPANCY =           0.01






         TIME SUMMARY AT END OF TIME STEP   10 IN STRESS PERIOD    5
                    SECONDS     MINUTES      HOURS       DAYS        YEARS
                    -----------------------------------------------------------
   TIME STEP LENGTH  87667.      1461.1      24.352      1.0147     2.77799E-03
 STRESS PERIOD TIME 8.76667E+05  14611.      243.52      10.147     2.77799E-02
         TOTAL TIME 8.85306E+06 1.47551E+05  2459.2      102.47     0.28054    
1
 
 SOLVING FOR HEAD 
                                                   Max.-Head-Change                         Max.-Flux-Residual
  Residual-Control   Outer-Iter.   Inner-Iter.     Column Row Layer    Maximum-Head-Change  Column Row Layer    Maximum-Flux-Residual          L2-NORM 
          0                 1           2             4    7     1      -0.1054454610E-01       4    7    1        -0.5527955307E+00      0.1249650186E+01
          0                 2           2             4    7     1       0.1025695196E-02       4    7    1         0.5527944869E-01      0.1248061296E+00
          0                 3           1             4    7     1      -0.6984605695E-04       4    7    1        -0.3869564070E-02      0.8720844993E-02

    ------------------------------------------------
       NWT REQUIRED            3 OUTER ITERATIONS 
       AND A TOTAL OF          5 INNER ITERATIONS.
    ------------------------------------------------

 NO OUTPUT CONTROL FOR STRESS PERIOD    5   TIME STEP   11
 
 SOLVING FOR HEAD 
                                                   Max.-Head-Change                         Max.-Flux-Residual
  Residual-Control   Outer-Iter.   Inner-Iter.     Column Row Layer    Maximum-Head-Change  Column Row Layer    Maximum-Flux-Residual          L2-NORM 
          0                 1           2             4    7     1      -0.1044834589E-01       4    7    1        -0.5478840682E+00      0.1227450126E+01
          0                 2           2             4    7     1       0.1016337514E-02       4    7    1         0.5478830059E-01      0.1226058690E+00
          0                 3           1             4    7     1      -0.6920883358E-04       4    7    1        -0.3835183692E-02      0.8569753864E-02

    ------------------------------------------------
       NWT REQUIRED            3 OUTER ITERATIONS 
       AND A TOTAL OF          5 INNER ITERATIONS.
    ------------------------------------------------

 NO OUTPUT CONTROL FOR STRESS PERIOD    5   TIME STEP   12
 
 SOLVING FOR HEAD 
                                                   Max.-Head-Change                         Max.-Flux-Residual
  Residual-Control   Outer-Iter.   Inner-Iter.     Column Row Layer    Maximum-Head-Change  Column Row Layer    Maximum-Flux-Residual          L2-NORM 
          0                 1           2             4    7     1      -0.1035077579E-01       4    7    1        -0.5428887303E+00      0.1206454767E+01
          0                 2           2             4    7     1       0.1006846585E-02       4    7    1         0.5428876532E-01      0.1205248725E+00
          0                 3           1             4    7     1      -0.6856253697E-04       4    7    1        -0.3800216241E-02      0.8425815125E-02

    ------------------------------------------------
       NWT REQUIRED            3 OUTER ITERATIONS 
       AND A TOTAL OF          5 INNER ITERATIONS.
    ------------------------------------------------

 NO OUTPUT CONTROL FOR STRESS PERIOD    5   TIME STEP   13
 
 SOLVING FOR HEAD 
                                                   Max.-Head-Change                         Max.-Flux-Residual
  Residual-Control   Outer-Iter.   Inner-Iter.     Column Row Layer    Maximum-Head-Change  Column Row Layer    Maximum-Flux-Residual          L2-NORM 
          0                 1           2             4    7     1      -0.1025192974E-01       4    7    1        -0.5378149903E+00      0.1186526219E+01
          0                 2           2             4    7     1       0.9972315451E-03       4    7    1         0.5378139022E-01      0.1185471095E+00
          0                 3           1             4    7     1      -0.6790778889E-04       4    7    1        -0.3764699981E-02      0.8288577768E-02

    ------------------------------------------------
       NWT REQUIRED            3 OUTER ITERATIONS 
       AND A TOTAL OF          5 INNER ITERATIONS.
    ------------------------------------------------

 NO OUTPUT CONTROL FOR STRESS PERIOD    5   TIME STEP   14
 
 SOLVING FOR HEAD 
                                                   Max.-Head-Change                         Max.-Flux-Residual
  Residual-Control   Outer-Iter.   Inner-Iter.     Column Row Layer    Maximum-Head-Change  Column Row Layer    Maximum-Flux-Residual          L2-NORM 
          0                 1           2             4    7     1      -0.1015215711E-01       4    7    1        -0.5326824750E+00      0.1167577413E+01
          0                 2           2             4    7     1       0.9875263801E-03       4    7    1         0.5326813793E-01      0.1166653992E+00
          0                 3           1             4    7     1      -0.6724690315E-04       4    7    1        -0.3728772301E-02      0.8158193740E-02

    ------------------------------------------------
       NWT REQUIRED            3 OUTER ITERATIONS 
       AND A TOTAL OF          5 INNER ITERATIONS.
    ------------------------------------------------

 NO OUTPUT CONTROL FOR STRESS PERIOD    5   TIME STEP   15
 
 SOLVING FOR HEAD 
                                                   Max.-Head-Change                         Max.-Flux-Residual
  Residual-Control   Outer-Iter.   Inner-Iter.     Column Row Layer    Maximum-Head-Change  Column Row Layer    Maximum-Flux-Residual          L2-NORM 
          0                 1           2             4    7     1      -0.1005152507E-01       4    7    1        -0.5274945432E+00      0.1149534671E+01
          0                 2           2             4    7     1       0.9777376224E-03       4    7    1         0.5274934429E-01      0.1148726271E+00
          0                 3           1             4    7     1      -0.6658032519E-04       4    7    1        -0.3692456742E-02      0.8033795825E-02

    ------------------------------------------------
       NWT REQUIRED            3 OUTER ITERATIONS 
       AND A TOTAL OF          5 INNER ITERATIONS.
    ------------------------------------------------

 NO OUTPUT CONTROL FOR STRESS PERIOD    5   TIME STEP   16
 
 SOLVING FOR HEAD 
                                                   Max.-Head-Change                         Max.-Flux-Residual
  Residual-Control   Outer-Iter.   Inner-Iter.     Column Row Layer    Maximum-Head-Change  Column Row Layer    Maximum-Flux-Residual          L2-NORM 
          0                 1           2             4    7     1      -0.9950353784E-02       4    7    1        -0.5222694329E+00      0.1132304007E+01
          0                 2           2             4    7     1       0.9678964133E-03       4    7    1         0.5222683305E-01      0.1131595185E+00
          0                 3           1             4    7     1      -0.6591017500E-04       4    7    1        -0.3655880922E-02      0.7914788587E-02

    ------------------------------------------------
       NWT REQUIRED            3 OUTER ITERATIONS 
       AND A TOTAL OF          5 INNER ITERATIONS.
    ------------------------------------------------

 NO OUTPUT CONTROL FOR STRESS PERIOD    5   TIME STEP   17
 
 SOLVING FOR HEAD 
                                                   Max.-Head-Change                         Max.-Flux-Residual
  Residual-Control   Outer-Iter.   Inner-Iter.     Column Row Layer    Maximum-Head-Change  Column Row Layer    Maximum-Flux-Residual          L2-NORM 
          0                 1           2             4    7     1      -0.9848682515E-02       4    7    1        -0.5170089882E+00      0.1115831615E+01
          0                 2           2             4    7     1       0.9580065739E-03       4    7    1         0.5170078864E-01      0.1115208283E+00
          0                 3           1             4    7     1      -0.6523671363E-04       4    7    1        -0.3619057792E-02      0.7800609027E-02

    ------------------------------------------------
       NWT REQUIRED            3 OUTER ITERATIONS 
       AND A TOTAL OF          5 INNER ITERATIONS.
    ------------------------------------------------

 NO OUTPUT CONTROL FOR STRESS PERIOD    5   TIME STEP   18
 
 SOLVING FOR HEAD 
                                                   Max.-Head-Change                         Max.-Flux-Residual
  Residual-Control   Outer-Iter.   Inner-Iter.     Column Row Layer    Maximum-Head-Change  Column Row Layer    Maximum-Flux-Residual          L2-NORM 
          0                 1           2             4    7     1      -0.9746804695E-02       4    7    1        -0.5117300006E+00      0.1100054309E+01
          0                 2           2             4    7     1       0.9480966460E-03       4    7    1         0.5117289014E-01      0.1099510088E+00
          0                 3           1             4    7     1      -0.6456188453E-04       4    7    1        -0.3582104898E-02      0.7691576543E-02

    ------------------------------------------------
       NWT REQUIRED            3 OUTER ITERATIONS 
       AND A TOTAL OF          5 INNER ITERATIONS.
    ------------------------------------------------

 NO OUTPUT CONTROL FOR STRESS PERIOD    5   TIME STEP   19
 
 SOLVING FOR HEAD 
                                                   Max.-Head-Change                         Max.-Flux-Residual
  Residual-Control   Outer-Iter.   Inner-Iter.     Column Row Layer    Maximum-Head-Change  Column Row Layer    Maximum-Flux-Residual          L2-NORM 
          0                 1           2             4    7     1      -0.9644726808E-02       4    7    1        -0.5064329291E+00      0.1084914196E+01
          0                 2           2             4    7     1       0.9381672597E-03       4    7    1         0.5064318346E-01      0.1084436882E+00
          0                 3           1             4    7     1      -0.6388573006E-04       4    7    1        -0.3545025410E-02      0.7586798069E-02

    ------------------------------------------------
       NWT REQUIRED            3 OUTER ITERATIONS 
       AND A TOTAL OF          5 INNER ITERATIONS.
    ------------------------------------------------

 NO OUTPUT CONTROL FOR STRESS PERIOD    5   TIME STEP   20
 
 SOLVING FOR HEAD 
                                                   Max.-Head-Change                         Max.-Flux-Residual
  Residual-Control   Outer-Iter.   Inner-Iter.     Column Row Layer    Maximum-Head-Change  Column Row Layer    Maximum-Flux-Residual          L2-NORM 
          0                 1           2             4    7     1      -0.9542588194E-02       4    7    1        -0.5011254870E+00      0.1070361851E+01
          0                 2           2             4    7     1       0.9282319689E-03       4    7    1         0.5011243989E-01      0.1069951522E+00
          0                 3           1             4    7     1      -0.6320917347E-04       4    7    1        -0.3507873335E-02      0.7486689238E-02

    ------------------------------------------------
       NWT REQUIRED            3 OUTER ITERATIONS 
       AND A TOTAL OF          5 INNER ITERATIONS.
    ------------------------------------------------

 NO OUTPUT CONTROL FOR STRESS PERIOD    5   TIME STEP   21
 
 SOLVING FOR HEAD 
                                                   Max.-Head-Change                         Max.-Flux-Residual
  Residual-Control   Outer-Iter.   Inner-Iter.     Column Row Layer    Maximum-Head-Change  Column Row Layer    Maximum-Flux-Residual          L2-NORM 
          0                 1           2             4    7     1      -0.9440783378E-02       4    7    1        -0.4958296528E+00      0.1056362155E+01
          0                 2           2             4    7     1       0.9183291498E-03       4    7    1         0.4958285727E-01      0.1055994127E+00
          0                 3           1             4    7     1      -0.6253482837E-04       4    7    1        -0.3470802537E-02      0.7388610713E-02

    ------------------------------------------------
       NWT REQUIRED            3 OUTER ITERATIONS 
       AND A TOTAL OF          5 INNER ITERATIONS.
    ------------------------------------------------

 NO OUTPUT CONTROL FOR STRESS PERIOD    5   TIME STEP   22
 
 SOLVING FOR HEAD 
                                                   Max.-Head-Change                         Max.-Flux-Residual
  Residual-Control   Outer-Iter.   Inner-Iter.     Column Row Layer    Maximum-Head-Change  Column Row Layer    Maximum-Flux-Residual          L2-NORM 
          0                 1           2             4    7     1      -0.9339008099E-02       4    7    1        -0.4905289974E+00      0.1042868463E+01
          0                 2           2             4    7     1       0.9084292056E-03       4    7    1         0.4905279266E-01      0.1042544229E+00
          0                 3           1             4    7     1      -0.6186067864E-04       4    7    1        -0.3433697987E-02      0.7294813728E-02

    ------------------------------------------------
       NWT REQUIRED            3 OUTER ITERATIONS 
       AND A TOTAL OF          5 INNER ITERATIONS.
    ------------------------------------------------

 NO OUTPUT CONTROL FOR STRESS PERIOD    5   TIME STEP   23
 
 SOLVING FOR HEAD 
                                                   Max.-Head-Change                         Max.-Flux-Residual
  Residual-Control   Outer-Iter.   Inner-Iter.     Column Row Layer    Maximum-Head-Change  Column Row Layer    Maximum-Flux-Residual          L2-NORM 
          0                 1           2             4    7     1      -0.9237651243E-02       4    7    1        -0.4852446294E+00      0.1029852751E+01
          0                 2           2             4    7     1       0.8985310595E-03       4    7    1         0.4852435693E-01      0.1028936079E+00
          0                 3           1             4    7     1      -0.6118665162E-04       4    7    1        -0.3396707480E-02      0.7199972571E-02

    ------------------------------------------------
       NWT REQUIRED            3 OUTER ITERATIONS 
       AND A TOTAL OF          5 INNER ITERATIONS.
    ------------------------------------------------

 NO OUTPUT CONTROL FOR STRESS PERIOD    5   TIME STEP   24
 
 SOLVING FOR HEAD 
                                                   Max.-Head-Change                         Max.-Flux-Residual
  Residual-Control   Outer-Iter.   Inner-Iter.     Column Row Layer    Maximum-Head-Change  Column Row Layer    Maximum-Flux-Residual          L2-NORM 
          0                 1           2             4    7     1      -0.9136925259E-02       4    7    1        -0.4799840261E+00      0.1017343671E+01
          0                 2           2             4    7     1       0.8887720974E-03       4    7    1         0.4799829787E-01      0.1017090948E+00
          0                 3           1             4    7     1      -0.6052210171E-04       4    7    1        -0.3359883274E-02      0.7117305481E-02

    ------------------------------------------------
       NWT REQUIRED            3 OUTER ITERATIONS 
       AND A TOTAL OF          5 INNER ITERATIONS.
    ------------------------------------------------

 NO OUTPUT CONTROL FOR STRESS PERIOD    5   TIME STEP   25
 
 SOLVING FOR HEAD 
                                                   Max.-Head-Change                         Max.-Flux-Residual
  Residual-Control   Outer-Iter.   Inner-Iter.     Column Row Layer    Maximum-Head-Change  Column Row Layer    Maximum-Flux-Residual          L2-NORM 
          0                 1           2             4    7     1      -0.9036653888E-02       4    7    1        -0.4747446239E+00      0.1005255384E+01
          0                 2           2             4    7     1       0.8790184477E-03       4    7    1         0.4747435895E-01      0.1005034471E+00
          0                 3           1             4    7     1      -0.5985791415E-04       4    7    1        -0.3323207537E-02      0.7033260745E-02

    ------------------------------------------------
       NWT REQUIRED            3 OUTER ITERATIONS 
       AND A TOTAL OF          5 INNER ITERATIONS.
    ------------------------------------------------

 NO OUTPUT CONTROL FOR STRESS PERIOD    5   TIME STEP   26
 
 SOLVING FOR HEAD 
                                                   Max.-Head-Change                         Max.-Flux-Residual
  Residual-Control   Outer-Iter.   Inner-Iter.     Column Row Layer    Maximum-Head-Change  Column Row Layer    Maximum-Flux-Residual          L2-NORM 
          0                 1           2             4    7     1      -0.8937084759E-02       4    7    1        -0.4695382387E+00      0.9935585438E+00
          0                 2           2             4    7     1       0.8693331080E-03       4    7    1         0.4695372181E-01      0.9933642657E-01
          0                 3           1             4    7     1      -0.5919837840E-04       4    7    1        -0.3286762918E-02      0.6951730983E-02

    ------------------------------------------------
       NWT REQUIRED            3 OUTER ITERATIONS 
       AND A TOTAL OF          5 INNER ITERATIONS.
    ------------------------------------------------

 NO OUTPUT CONTROL FOR STRESS PERIOD    5   TIME STEP   27
 
 SOLVING FOR HEAD 
                                                   Max.-Head-Change                         Max.-Flux-Residual
  Residual-Control   Outer-Iter.   Inner-Iter.     Column Row Layer    Maximum-Head-Change  Column Row Layer    Maximum-Flux-Residual          L2-NORM 
          0                 1           2             4    7     1      -0.8838144933E-02       4    7    1        -0.4643608897E+00      0.9822176950E+00
          0                 2           2             4    7     1       0.8597089831E-03       4    7    1         0.4643598835E-01      0.9820453601E-01
          0                 3           1             4    7     1      -0.5854301129E-04       4    7    1        -0.3250521547E-02      0.6872757380E-02

    ------------------------------------------------
       NWT REQUIRED            3 OUTER ITERATIONS 
       AND A TOTAL OF          5 INNER ITERATIONS.
    ------------------------------------------------

 NO OUTPUT CONTROL FOR STRESS PERIOD    5   TIME STEP   28
 
 SOLVING FOR HEAD 
                                                   Max.-Head-Change                         Max.-Flux-Residual
  Residual-Control   Outer-Iter.   Inner-Iter.     Column Row Layer    Maximum-Head-Change  Column Row Layer    Maximum-Flux-Residual          L2-NORM 
          0                 1           2             4    7     1      -0.8739972614E-02       4    7    1        -0.4592235472E+00      0.9916094613E+00
          0                 2           2             4    7     1       0.8501595164E-03       4    7    1         0.4592225557E-01      0.1044956269E+00
          0                 3           1             4    7     1      -0.5789272710E-04       4    7    1        -0.3214560229E-02      0.7303752858E-02

    ------------------------------------------------
       NWT REQUIRED            3 OUTER ITERATIONS 
       AND A TOTAL OF          5 INNER ITERATIONS.
    ------------------------------------------------

 NO OUTPUT CONTROL FOR STRESS PERIOD    5   TIME STEP   29
 
 SOLVING FOR HEAD 
                                                   Max.-Head-Change                         Max.-Flux-Residual
  Residual-Control   Outer-Iter.   Inner-Iter.     Column Row Layer    Maximum-Head-Change  Column Row Layer    Maximum-Flux-Residual          L2-NORM 
          0                 1           2             4   13     1       0.9706635298E-02       4   13    1         0.5578769040E+00      0.1407571162E+01
          0                 2           2             4   13     1      -0.9344699076E-03       4   13    1        -0.5522158088E-01      0.1389512709E+00
          0                 3           1             4   13     1       0.6272252518E-04       4   13    1         0.3810919998E-02      0.9560425323E-02

    ------------------------------------------------
       NWT REQUIRED            3 OUTER ITERATIONS 
       AND A TOTAL OF          5 INNER ITERATIONS.
    ------------------------------------------------

 NO OUTPUT CONTROL FOR STRESS PERIOD    5   TIME STEP   30



 STREAM LISTING     PERIOD      5   STEP       30

 LAYER ROW COL. STREAM  RCH.  FLOW INTO     FLOW TO   FLOW OUT OF   OVRLND.     DIRECT     STREAM       STREAM     STREAM     STREAM   STREAMBED  STREAMBED
                SEG.NO.  NO.  STRM. RCH.    AQUIFER    STRM. RCH.    RUNOFF     PRECIP       ET          HEAD       DEPTH      WIDTH   CONDCTNC.   GRADIENT

   1    1    1     1     1    3.7125E+01  2.9395E-01   3.6831E+01  0.000E+00  0.000E+00  0.000E+00  1.09436E+03  1.309E+00  1.516E+01  6.821E-02  1.436E+00
   1    2    2     1     2    3.6831E+01  4.5518E-01   3.6376E+01  0.000E+00  0.000E+00  0.000E+00  1.08936E+03  1.306E+00  1.510E+01  1.057E-01  1.435E+00
   1    3    3     1     3    3.6376E+01  3.8814E-01   3.5988E+01  0.000E+00  0.000E+00  0.000E+00  1.08372E+03  1.303E+00  1.503E+01  9.020E-02  1.434E+00
   1    3    4     1     4    3.5988E+01  3.5737E-01   3.5631E+01  0.000E+00  0.000E+00  0.000E+00  1.07871E+03  1.300E+00  1.497E+01  8.311E-02  1.433E+00
   1    4    5     2     1    3.3631E+01  3.4618E-01   3.3284E+01  0.000E+00  0.000E+00  0.000E+00  1.07337E+03  1.438E+00  1.200E+01  7.800E-02  1.479E+00
   1    5    6     2     2    3.3284E+01  2.6582E-01   3.3019E+01  0.000E+00  0.000E+00  0.000E+00  1.06794E+03  1.430E+00  1.200E+01  6.000E-02  1.477E+00
   1    6    6     2     3    3.3019E+01  2.6541E-01   3.2753E+01  0.000E+00  0.000E+00  0.000E+00  1.06322E+03  1.423E+00  1.200E+01  6.000E-02  1.474E+00
   1    7    6     2     4    3.2753E+01  2.6499E-01   3.2488E+01  0.000E+00  0.000E+00  0.000E+00  1.05849E+03  1.417E+00  1.200E+01  6.000E-02  1.472E+00
   1    8    6     2     5    3.2488E+01  2.6458E-01   3.2224E+01  0.000E+00  0.000E+00  0.000E+00  1.05377E+03  1.410E+00  1.200E+01  6.000E-02  1.470E+00
   1    3    5     3     1    2.0000E+00  2.8252E-01   1.7175E+00  0.000E+00  0.000E+00  0.000E+00  1.07555E+03  1.909E+00  9.636E+00  7.227E-02  1.955E+00
   1    3    6     3     2    1.7175E+00  2.4905E-01   1.4684E+00  0.000E+00  0.000E+00  0.000E+00  1.07264E+03  1.727E+00  8.909E+00  6.682E-02  1.864E+00
   1    3    7     3     3    1.4684E+00  1.9718E-01   1.2712E+00  0.000E+00  0.000E+00  0.000E+00  1.06987E+03  1.555E+00  8.218E+00  5.547E-02  1.777E+00
   1    4    8     3     4    1.2712E+00  2.2567E-01   1.0456E+00  0.000E+00  0.000E+00  0.000E+00  1.06682E+03  1.364E+00  7.455E+00  6.709E-02  1.682E+00
   1    5    8     3     5    1.0456E+00  1.5790E-01   8.8768E-01  0.000E+00  0.000E+00  0.000E+00  1.06362E+03  1.164E+00  6.655E+00  4.991E-02  1.582E+00
   1    6    8     3     6    8.8768E-01  5.5980E-02   8.3170E-01  0.000E+00  0.000E+00  0.000E+00  1.06158E+03  1.036E+00  6.145E+00  1.844E-02  1.518E+00
   1    5   10     4     1    1.0000E+01  9.0919E-02   9.9091E+00  0.000E+00  0.000E+00  0.000E+00  1.07836E+03  6.368E-01  1.000E+01  2.500E-02  1.212E+00
   1    5    9     4     2    9.9091E+00  1.8158E-01   9.7275E+00  0.000E+00  0.000E+00  0.000E+00  1.07154E+03  6.315E-01  1.000E+01  5.000E-02  1.211E+00
   1    6    8     4     3    9.7275E+00  1.2689E-01   9.6006E+00  0.000E+00  0.000E+00  0.000E+00  1.06381E+03  6.256E-01  1.000E+01  3.500E-02  1.209E+00
   1    6    8     5     1    1.0432E+01  2.2686E-01   1.0205E+01  0.000E+00  0.000E+00  0.000E+00  1.05868E+03  6.790E-01  1.542E+01  6.166E-02  1.226E+00
   1    7    7     5     2    1.0205E+01  2.7894E-01   9.9265E+00  0.000E+00  0.000E+00  0.000E+00  1.05417E+03  6.732E-01  1.519E+01  7.594E-02  1.224E+00
   1    8    7     5     3    9.9265E+00  1.9221E-01   9.7343E+00  0.000E+00  0.000E+00  0.000E+00  1.04992E+03  6.676E-01  1.497E+01  5.241E-02  1.223E+00
   1    8    6     5     4    9.7343E+00  1.3577E-01   9.5985E+00  0.000E+00  0.000E+00  0.000E+00  1.04691E+03  6.637E-01  1.482E+01  3.706E-02  1.221E+00
   1    9    6     6     1    4.1822E+01  2.7956E-01   4.1542E+01  0.000E+00  0.000E+00  0.000E+00  1.04439E+03  1.659E+00  1.200E+01  6.000E-02  1.553E+00
   1   10    7     6     2    4.1542E+01  2.7916E-01   4.1263E+01  0.000E+00  0.000E+00  0.000E+00  1.03983E+03  1.653E+00  1.200E+01  6.000E-02  1.551E+00
   1   11    7     6     3    4.1263E+01  2.7876E-01   4.0985E+01  0.000E+00  0.000E+00  0.000E+00  1.03528E+03  1.646E+00  1.200E+01  6.000E-02  1.549E+00
   1   12    7     6     4    4.0985E+01  2.7836E-01   4.0706E+01  0.000E+00  0.000E+00  0.000E+00  1.03073E+03  1.639E+00  1.200E+01  6.000E-02  1.546E+00
   1   13    7     6     5    4.0706E+01  1.6479E-02   4.0690E+01  0.000E+00  0.000E+00  0.000E+00  1.02754E+03  1.636E+00  1.200E+01  2.400E-02  2.289E-01
   1   14    9     7     1    1.5000E+02  1.3674E+00   1.4863E+02  0.000E+00  0.000E+00  0.000E+00  1.03987E+03  2.288E+00  5.529E+01  5.593E-01  8.149E-01
   1   13    8     7     2    1.4863E+02  1.9159E+00   1.4672E+02  0.000E+00  0.000E+00  0.000E+00  1.03478E+03  2.279E+00  5.526E+01  6.148E-01  1.039E+00
   1   13    7     7     3    1.4672E+02  1.5807E+00   1.4514E+02  0.000E+00  0.000E+00  0.000E+00  1.02969E+03  2.270E+00  5.521E+01  5.584E-01  9.436E-01
   1   13    6     8     1    1.8583E+02  1.0952E+00   1.8473E+02  0.000E+00  0.000E+00  0.000E+00  1.02492E+03  3.049E+00  4.421E+01  4.505E-01  8.103E-01
   1   13    5     8     2    1.8473E+02  3.0261E-01   1.8443E+02  0.000E+00  0.000E+00  0.000E+00  1.01867E+03  3.045E+00  4.415E+01  4.499E-01  2.242E-01
   1   13    4     8     3    1.8443E+02 -1.7637E+00   1.8619E+02  0.000E+00  0.000E+00  0.000E+00  1.01242E+03  3.049E+00  4.421E+01  4.506E+00 -1.305E-01
   1   13    3     8     4    1.8619E+02 -3.1204E+00   1.8931E+02  0.000E+00  0.000E+00  0.000E+00  1.00619E+03  3.064E+00  4.443E+01  4.528E+00 -2.297E-01
   1   13    2     8     5    1.8931E+02 -2.0792E+00   1.9139E+02  0.000E+00  0.000E+00  0.000E+00  9.99955E+02  3.080E+00  4.466E+01  4.551E+00 -1.523E-01
   1   13    1     8     6    1.9139E+02 -1.7213E+00   1.9311E+02  0.000E+00  0.000E+00  0.000E+00  9.94967E+02  3.092E+00  4.483E+01  2.741E+00 -2.093E-01
   1    8    6     9     1    0.0000E+00  0.0000E+00   0.0000E+00  0.000E+00  0.000E+00  0.000E+00  1.07875E+03  0.000E+00  4.000E+00  0.000E+00  1.000E+00
   1    8    5     9     2    0.0000E+00  0.0000E+00   0.0000E+00  0.000E+00  0.000E+00  0.000E+00  1.07825E+03  0.000E+00  4.000E+00  0.000E+00  1.000E+00





UNSATURATED ZONE PACKAGE VOLUMETRIC BUDGET FOR  TIME STEP    30 STRESS PERIOD    5
  ------------------------------------------------------------------------------



     CUMULATIVE VOLUMES      L**3       RATES FOR THIS TIME STEP      L**3/T
     ------------------                 ------------------------

           IN:                                      IN:
           ---                                      ---
        INFILTRATION =    18772572.0337          INFILTRATION =           4.5675

          OUT:                                     OUT:
          ----                                     ----
              UZF ET =    18615489.4355                UZF ET =           4.5675
        UZF RECHARGE =       73224.0000          UZF RECHARGE =       0.0000E+00

            IN - OUT =       83858.5982              IN - OUT =       0.0000E+00

          STORAGE:                                 STORAGE:
          --------                                 --------
      STORAGE CHANGE =       83858.6509        STORAGE CHANGE =       2.0749E-17

 PERCENT DISCREPANCY IS DIFFERENCE BETWEEN IN-OUT MINUS CHANGE IN STORAGE
 DIVIDED BY THE AVERAGE OF IN AND OUT TIMES 100

 PERCENT DISCREPANCY =           0.00     PERCENT DISCREPANCY =           0.00






1
  VOLUMETRIC BUDGET FOR AGRICULTURAL FIELDS AT  END OF TIME STEP   30, STRESS PERIOD   5
  ------------------------------------------------------------------------------

     CUMULATIVE VOLUMES      L**3       RATES FOR THIS TIME STEP      L**3/T
     ------------------                 ------------------------

           IN:                                      IN:
           ---                                      ---
               AG WELLS  =     9783649.0000                 AG WELLS  =           3.7200
      DIVERSION SEGMENTS =           0.0000        DIVERSION SEGMENTS =           0.0000
       IRRIGATION PONDS  =           0.0000         IRRIGATION PONDS  =           0.0000
           GW IRRIGATION =           0.0000             GW IRRIGATION =           0.0000
           SW IRRIGATION =           0.0000             SW IRRIGATION =           0.0000
        SYSTEM LOSSES GW =           0.0000          SYSTEM LOSSES GW =           0.0000
        SYSTEM LOSSES SW =           0.0000          SYSTEM LOSSES SW =           0.0000

                TOTAL IN =     9783649.0000                  TOTAL IN =           3.7200

          OUT:                                     OUT:
          ----                                     ----
               AG WELLS  =           0.0000                 AG WELLS  =           0.0000
      DIVERSION SEGMENTS =           0.0000        DIVERSION SEGMENTS =           0.0000
       IRRIGATION PONDS  =           0.0000         IRRIGATION PONDS  =           0.0000
           GW IRRIGATION =     9783649.0000             GW IRRIGATION =           3.7200
           SW IRRIGATION =           0.0000             SW IRRIGATION =           0.0000
        SYSTEM LOSSES GW =           0.0000          SYSTEM LOSSES GW =           0.0000
        SYSTEM LOSSES SW =           0.0000          SYSTEM LOSSES SW =           0.0000

               TOTAL OUT =     9783649.0000                 TOTAL OUT =           3.7200

                IN - OUT =           0.0000                  IN - OUT =           0.0000

     PERCENT DISCREPANCY =           0.00         PERCENT DISCREPANCY =           0.00



1
  VOLUMETRIC BUDGET FOR ENTIRE MODEL AT END OF TIME STEP   30, STRESS PERIOD   5
  ------------------------------------------------------------------------------

     CUMULATIVE VOLUMES      L**3       RATES FOR THIS TIME STEP      L**3/T
     ------------------                 ------------------------

           IN:                                      IN:
           ---                                      ---
             STORAGE     =    15044716.0000               STORAGE     =           3.2539
       CONSTANT HEAD     =           0.0000         CONSTANT HEAD     =           0.0000
     HEAD DEP BOUNDS     =     3052947.5000       HEAD DEP BOUNDS     =           0.2879
      STREAM LEAKAGE     =   123311632.0000        STREAM LEAKAGE     =          12.6972
        UZF RECHARGE     =       73223.9531          UZF RECHARGE     =           0.0000
               GW ET     =           0.0000                 GW ET     =           0.0000
     SURFACE LEAKAGE     =           0.0000       SURFACE LEAKAGE     =           0.0000
           AG WELLS      =           0.0000             AG WELLS      =           0.0000

                TOTAL IN =   141482512.0000                  TOTAL IN =          16.2390

          OUT:                                     OUT:
          ----                                     ----
             STORAGE     =    20213900.0000               STORAGE     =           3.5459
       CONSTANT HEAD     =           0.0000         CONSTANT HEAD     =           0.0000
     HEAD DEP BOUNDS     =     3057928.2500       HEAD DEP BOUNDS     =           0.2886
      STREAM LEAKAGE     =   108428488.0000        STREAM LEAKAGE     =           8.6846
        UZF RECHARGE     =           0.0000          UZF RECHARGE     =           0.0000
               GW ET     =           0.0000                 GW ET     =           0.0000
     SURFACE LEAKAGE     =           0.0000       SURFACE LEAKAGE     =           0.0000
           AG WELLS      =     9783649.0000             AG WELLS      =           3.7200

               TOTAL OUT =   141483968.0000                 TOTAL OUT =          16.2391

                IN - OUT =       -1456.0000                  IN - OUT =      -7.2479E-05

     PERCENT DISCREPANCY =          -0.00         PERCENT DISCREPANCY =          -0.00






         TIME SUMMARY AT END OF TIME STEP   30 IN STRESS PERIOD    5
                    SECONDS     MINUTES      HOURS       DAYS        YEARS
                    -----------------------------------------------------------
   TIME STEP LENGTH  87667.      1461.1      24.352      1.0147     2.77799E-03
 STRESS PERIOD TIME 2.63000E+06  43833.      730.56      30.440     8.33397E-02
         TOTAL TIME 1.06064E+07 1.76773E+05  2946.2      122.76     0.33610    
1
1
                            STRESS PERIOD NO.    6, LENGTH =   2630000.    
                            -----------------------------------------------

                              NUMBER OF TIME STEPS =    30

                               MULTIPLIER FOR DELT =     1.000

                            INITIAL TIME STEP SIZE =   87666.66    

 REUSING NON-PARAMETER GHB CELLS FROM LAST STRESS PERIOD

      2 GHB CELLS

 REUSING STREAM SEGMENT DATA FROM LAST STRESS PERIOD



            AREAL INFILTRATION RATE
 READING ON UNIT   19 WITH FORMAT: (FREE)              

            1           2           3           4           5           6           7           8           9          10
 ........................................................................................................................
   1   1.0000E-10  2.0000E-10   0.000       0.000       0.000       0.000       0.000       0.000       0.000       0.000    
   2   2.0000E-10  1.0000E-10  2.0000E-10   0.000       0.000      8.0000E-10  8.0000E-10  5.0000E-10   0.000       0.000    
   3    0.000      5.0000E-10  1.0000E-10  1.0000E-10  8.0000E-10  8.0000E-10  5.0000E-10  5.0000E-10   0.000       0.000    
   4   8.0000E-10  5.0000E-10  1.0000E-10  1.0000E-10  1.0000E-10  1.0000E-10  1.0000E-10  1.0000E-10  2.0000E-10   0.000    
   5   8.0000E-10  5.0000E-10  1.0000E-10  1.0000E-10  1.0000E-10  1.0000E-10  1.0000E-10  1.0000E-10  1.0000E-10  1.0000E-10
   6   8.0000E-10  5.0000E-10  5.0000E-10  2.0000E-10  2.0000E-10  1.0000E-10  1.0000E-10  1.0000E-10  1.0000E-10  5.0000E-10
   7   8.0000E-10  5.0000E-10  5.0000E-10  2.0000E-10  2.0000E-10  1.0000E-10  1.0000E-10  2.0000E-10  2.0000E-10   0.000    
   8    0.000      5.0000E-10  5.0000E-10  2.0000E-10  2.0000E-10  1.0000E-10  1.0000E-10  2.0000E-10  5.0000E-10   0.000    
   9    0.000      5.0000E-10  5.0000E-10  2.0000E-10  2.0000E-10  1.0000E-10  1.0000E-10  2.0000E-10  5.0000E-10   0.000    
  10    0.000      5.0000E-10  5.0000E-10  2.0000E-10  2.0000E-10  1.0000E-10  1.0000E-10  2.0000E-10  5.0000E-10  8.0000E-10
  11    0.000      1.0000E-10  1.0000E-10  1.0000E-10  1.0000E-10  1.0000E-10  1.0000E-10  2.0000E-10  5.0000E-10   0.000    
  12   1.0000E-10  1.0000E-10  1.0000E-10  1.0000E-10  1.0000E-10  1.0000E-10  1.0000E-10  1.0000E-10  2.0000E-10   0.000    
  13   1.0000E-10  1.0000E-10  2.0000E-10  2.0000E-10  2.0000E-10  2.0000E-10  2.0000E-10  1.0000E-10  1.0000E-10   0.000    
  14    0.000      2.0000E-10  5.0000E-10  5.0000E-10  5.0000E-10  5.0000E-10  5.0000E-10  2.0000E-10  1.0000E-10   0.000    
  15    0.000       0.000      8.0000E-10  8.0000E-10  8.0000E-10  8.0000E-10   0.000       0.000       0.000       0.000    

                  ET RATE =  5.000000E-08

 USING ET EXTINCTION DEPTH FROM PREVIOUS STRESS PERIOD. CURRENT PERIOD IS:       6

 USING EXTINCTION WATER CONTENT FROM PREVIOUS STRESS PERIOD. CURRENT PERIOD IS:       6

 USING AIR ENTRY PRESSURE FROM PREVIOUS STRESS PERIOD. CURRENT PERIOD IS:       6

 USING ROOT PRESSURE HEAD FROM PREVIOUS STRESS PERIOD. CURRENT PERIOD IS:       6

 USING ROOT ACTIVITY FROM PREVIOUS STRESS PERIOD. CURRENT PERIOD IS:       6

 PROCESSING AG STRESS PERIOD DATA

 READING AG STRESS PERIOD DATA

 READING IRRIGATION SEGMENT

 READING IRRIGATION WELL

 READING SUPPLEMENTAL WELL

 NO IRRPOND OR REUSING IRRPOND DATA FROM LAST STRESS PERIOD

 END PROCESSING AG STRESS PERIOD DATA OPTIONS
 
 SOLVING FOR HEAD 
                                                   Max.-Head-Change                         Max.-Flux-Residual
  Residual-Control   Outer-Iter.   Inner-Iter.     Column Row Layer    Maximum-Head-Change  Column Row Layer    Maximum-Flux-Residual          L2-NORM 
          0                 1           2             4    7     1      -0.2051586556E-01       4    7    1        -0.1074048217E+01      0.2622503302E+01
          0                 2           2             4    7     1       0.1994176611E-02       4    7    1         0.1073265208E+00      0.2612560179E+00
          0                 3           2             4    7     1      -0.1357960851E-03       4    7    1        -0.7512862894E-02      0.1821362730E-01
          0                 4           1             4    7     1       0.5403453136E-05       4    7    1         0.3072765126E-03      0.7404739450E-03

    ------------------------------------------------
       NWT REQUIRED            4 OUTER ITERATIONS 
       AND A TOTAL OF          7 INNER ITERATIONS.
    ------------------------------------------------

 NO OUTPUT CONTROL FOR STRESS PERIOD    6   TIME STEP    1
 
 SOLVING FOR HEAD 
                                                   Max.-Head-Change                         Max.-Flux-Residual
  Residual-Control   Outer-Iter.   Inner-Iter.     Column Row Layer    Maximum-Head-Change  Column Row Layer    Maximum-Flux-Residual          L2-NORM 
          0                 1           2             4    7     1      -0.2035604931E-01       4    7    1        -0.1065982435E+01      0.2565587857E+01
          0                 2           2             4    7     1       0.1980083165E-02       4    7    1         0.1065978941E+00      0.2558497837E+00
          0                 3           2             4    7     1      -0.1348363754E-03       4    7    1        -0.7461859119E-02      0.1784543463E-01
          0                 4           1             4    7     1       0.5365265081E-05       4    7    1         0.3051904496E-03      0.7260974040E-03

    ------------------------------------------------
       NWT REQUIRED            4 OUTER ITERATIONS 
       AND A TOTAL OF          7 INNER ITERATIONS.
    ------------------------------------------------

 NO OUTPUT CONTROL FOR STRESS PERIOD    6   TIME STEP    2
 
 SOLVING FOR HEAD 
                                                   Max.-Head-Change                         Max.-Flux-Residual
  Residual-Control   Outer-Iter.   Inner-Iter.     Column Row Layer    Maximum-Head-Change  Column Row Layer    Maximum-Flux-Residual          L2-NORM 
          0                 1           2             4    7     1      -0.2019223109E-01       4    7    1        -0.1057681778E+01      0.2513033432E+01
          0                 2           2             4    7     1       0.1964147983E-02       4    7    1         0.1057678185E+00      0.2506885738E+00
          0                 3           2             4    7     1      -0.1337512498E-03       4    7    1        -0.7403753896E-02      0.1749228470E-01
          0                 4           1             4    7     1       0.5322087395E-05       4    7    1         0.3028139438E-03      0.7118463333E-03

    ------------------------------------------------
       NWT REQUIRED            4 OUTER ITERATIONS 
       AND A TOTAL OF          7 INNER ITERATIONS.
    ------------------------------------------------

 NO OUTPUT CONTROL FOR STRESS PERIOD    6   TIME STEP    3
 
 SOLVING FOR HEAD 
                                                   Max.-Head-Change                         Max.-Flux-Residual
  Residual-Control   Outer-Iter.   Inner-Iter.     Column Row Layer    Maximum-Head-Change  Column Row Layer    Maximum-Flux-Residual          L2-NORM 
          0                 1           2             4    7     1      -0.2002487669E-01       4    7    1        -0.1049173080E+01      0.2464305780E+01
          0                 2           2             4    7     1       0.1947868849E-02       4    7    1         0.1049169406E+00      0.2458977950E+00
          0                 3           2             4    7     1      -0.1326427024E-03       4    7    1        -0.7344192501E-02      0.1716410574E-01
          0                 4           1             4    7     1       0.5277977061E-05       4    7    1         0.3003778788E-03      0.6990245075E-03

    ------------------------------------------------
       NWT REQUIRED            4 OUTER ITERATIONS 
       AND A TOTAL OF          7 INNER ITERATIONS.
    ------------------------------------------------

 NO OUTPUT CONTROL FOR STRESS PERIOD    6   TIME STEP    4
 
 SOLVING FOR HEAD 
                                                   Max.-Head-Change                         Max.-Flux-Residual
  Residual-Control   Outer-Iter.   Inner-Iter.     Column Row Layer    Maximum-Head-Change  Column Row Layer    Maximum-Flux-Residual          L2-NORM 
          0                 1           2             4    7     1      -0.1985431148E-01       4    7    1        -0.1040473661E+01      0.2418977835E+01
          0                 2           2             4    7     1       0.1931277412E-02       4    7    1         0.1040469920E+00      0.2414360249E+00
          0                 3           2             4    7     1      -0.1315128878E-03       4    7    1        -0.7283296138E-02      0.1685878401E-01
          0                 4           1             4    7     1       0.5233020309E-05       4    7    1         0.2978871928E-03      0.6865071238E-03

    ------------------------------------------------
       NWT REQUIRED            4 OUTER ITERATIONS 
       AND A TOTAL OF          7 INNER ITERATIONS.
    ------------------------------------------------

 NO OUTPUT CONTROL FOR STRESS PERIOD    6   TIME STEP    5
 
 SOLVING FOR HEAD 
                                                   Max.-Head-Change                         Max.-Flux-Residual
  Residual-Control   Outer-Iter.   Inner-Iter.     Column Row Layer    Maximum-Head-Change  Column Row Layer    Maximum-Flux-Residual          L2-NORM 
          0                 1           2             4    7     1      -0.1968110530E-01       4    7    1        -0.1031615138E+01      0.2376665949E+01
          0                 2           2             4    7     1       0.1914429100E-02       4    7    1         0.1031611343E+00      0.2372658888E+00
          0                 3           2             4    7     1      -0.1303655807E-03       4    7    1        -0.7221286109E-02      0.1657211013E-01
          0                 4           1             4    7     1       0.5187368301E-05       4    7    1         0.2953509870E-03      0.6756231608E-03

    ------------------------------------------------
       NWT REQUIRED            4 OUTER ITERATIONS 
       AND A TOTAL OF          7 INNER ITERATIONS.
    ------------------------------------------------

 NO OUTPUT CONTROL FOR STRESS PERIOD    6   TIME STEP    6
 
 SOLVING FOR HEAD 
                                                   Max.-Head-Change                         Max.-Flux-Residual
  Residual-Control   Outer-Iter.   Inner-Iter.     Column Row Layer    Maximum-Head-Change  Column Row Layer    Maximum-Flux-Residual          L2-NORM 
          0                 1           2             4    7     1      -0.1950552051E-01       4    7    1        -0.1022612311E+01      0.2337036648E+01
          0                 2           2             4    7     1       0.1897349434E-02       4    7    1         0.1022608474E+00      0.2333552087E+00
          0                 3           2             4    7     1      -0.1292025196E-03       4    7    1        -0.7158266046E-02      0.1630265425E-01
          0                 4           1             4    7     1       0.5141089078E-05       4    7    1         0.2927734747E-03      0.6647611897E-03

    ------------------------------------------------
       NWT REQUIRED            4 OUTER ITERATIONS 
       AND A TOTAL OF          7 INNER ITERATIONS.
    ------------------------------------------------

 NO OUTPUT CONTROL FOR STRESS PERIOD    6   TIME STEP    7
 
 SOLVING FOR HEAD 
                                                   Max.-Head-Change                         Max.-Flux-Residual
  Residual-Control   Outer-Iter.   Inner-Iter.     Column Row Layer    Maximum-Head-Change  Column Row Layer    Maximum-Flux-Residual          L2-NORM 
          0                 1           2             4    7     1      -0.1932807412E-01       4    7    1        -0.1013493529E+01      0.2299807852E+01
          0                 2           2             4    7     1       0.1880088700E-02       4    7    1         0.1013489663E+00      0.2296791051E+00
          0                 3           2             4    7     1      -0.1280271280E-03       4    7    1        -0.7094434358E-02      0.1605008108E-01
          0                 4           1             4    7     1       0.5094319066E-05       4    7    1         0.2901627629E-03      0.6548028846E-03

    ------------------------------------------------
       NWT REQUIRED            4 OUTER ITERATIONS 
       AND A TOTAL OF          7 INNER ITERATIONS.
    ------------------------------------------------

 NO OUTPUT CONTROL FOR STRESS PERIOD    6   TIME STEP    8
 
 SOLVING FOR HEAD 
                                                   Max.-Head-Change                         Max.-Flux-Residual
  Residual-Control   Outer-Iter.   Inner-Iter.     Column Row Layer    Maximum-Head-Change  Column Row Layer    Maximum-Flux-Residual          L2-NORM 
          0                 1           2             4    7     1      -0.1914897789E-01       4    7    1        -0.1004270853E+01      0.2264723702E+01
          0                 2           2             4    7     1       0.1862667496E-02       4    7    1         0.1004266966E+00      0.2262105042E+00
          0                 3           2             4    7     1      -0.1268408085E-03       4    7    1        -0.7029875472E-02      0.1581062506E-01
          0                 4           1             4    7     1       0.5047114217E-05       4    7    1         0.2875222831E-03      0.6449737945E-03

    ------------------------------------------------
       NWT REQUIRED            4 OUTER ITERATIONS 
       AND A TOTAL OF          7 INNER ITERATIONS.
    ------------------------------------------------

 NO OUTPUT CONTROL FOR STRESS PERIOD    6   TIME STEP    9
 
 SOLVING FOR HEAD 
                                                   Max.-Head-Change                         Max.-Flux-Residual
  Residual-Control   Outer-Iter.   Inner-Iter.     Column Row Layer    Maximum-Head-Change  Column Row Layer    Maximum-Flux-Residual          L2-NORM 
          0                 1           2             4    7     1      -0.1896855923E-01       4    7    1        -0.9949626354E+00      0.2231557332E+01
          0                 2           2             4    7     1       0.1845117669E-02       4    7    1         0.9949587372E-01      0.2229279553E+00
          0                 3           2             4    7     1      -0.1256457308E-03       4    7    1        -0.6964717861E-02      0.1558434883E-01
          0                 4           1             4    7     1       0.4999561107E-05       4    7    1         0.2848573452E-03      0.6362267853E-03

    ------------------------------------------------
       NWT REQUIRED            4 OUTER ITERATIONS 
       AND A TOTAL OF          7 INNER ITERATIONS.
    ------------------------------------------------

 NO OUTPUT CONTROL FOR STRESS PERIOD    6   TIME STEP   10
 
 SOLVING FOR HEAD 
                                                   Max.-Head-Change                         Max.-Flux-Residual
  Residual-Control   Outer-Iter.   Inner-Iter.     Column Row Layer    Maximum-Head-Change  Column Row Layer    Maximum-Flux-Residual          L2-NORM 
          0                 1           2             4    7     1      -0.1878712602E-01       4    7    1        -0.9855858527E+00      0.2200121589E+01
          0                 2           2             4    7     1       0.1827468984E-02       4    7    1         0.9855819518E-01      0.2198119382E+00
          0                 3           2             4    7     1      -0.1244439207E-03       4    7    1        -0.6899080332E-02      0.1536895141E-01
          0                 4           1             4    7     1       0.4951740095E-05       4    7    1         0.2821727660E-03      0.6275420156E-03

    ------------------------------------------------
       NWT REQUIRED            4 OUTER ITERATIONS 
       AND A TOTAL OF          7 INNER ITERATIONS.
    ------------------------------------------------

 NO OUTPUT CONTROL FOR STRESS PERIOD    6   TIME STEP   11
 
 SOLVING FOR HEAD 
                                                   Max.-Head-Change                         Max.-Flux-Residual
  Residual-Control   Outer-Iter.   Inner-Iter.     Column Row Layer    Maximum-Head-Change  Column Row Layer    Maximum-Flux-Residual          L2-NORM 
          0                 1           2             4    7     1      -0.1860509712E-01       4    7    1        -0.9761638496E+00      0.2170249310E+01
          0                 2           2             4    7     1       0.1809762730E-02       4    7    1         0.9761599537E-01      0.2168525045E+00
          0                 3           2             4    7     1      -0.1232381900E-03       4    7    1        -0.6833126304E-02      0.1516402738E-01
          0                 4           1             4    7     1       0.4903762625E-05       4    7    1         0.2794752322E-03      0.6192335342E-03

    ------------------------------------------------
       NWT REQUIRED            4 OUTER ITERATIONS 
       AND A TOTAL OF          7 INNER ITERATIONS.
    ------------------------------------------------

 NO OUTPUT CONTROL FOR STRESS PERIOD    6   TIME STEP   12
 
 SOLVING FOR HEAD 
                                                   Max.-Head-Change                         Max.-Flux-Residual
  Residual-Control   Outer-Iter.   Inner-Iter.     Column Row Layer    Maximum-Head-Change  Column Row Layer    Maximum-Flux-Residual          L2-NORM 
          0                 1           2             4    7     1      -0.1842259538E-01       4    7    1        -0.9667035708E+00      0.2141789908E+01
          0                 2           2             4    7     1       0.1792010309E-02       4    7    1         0.9666996867E-01      0.2140289193E+00
          0                 3           2             4    7     1      -0.1220293158E-03       4    7    1        -0.6766904393E-02      0.1496845151E-01
          0                 4           1             4    7     1       0.4855660471E-05       4    7    1         0.2767667554E-03      0.6114260681E-03

    ------------------------------------------------
       NWT REQUIRED            4 OUTER ITERATIONS 
       AND A TOTAL OF          7 INNER ITERATIONS.
    ------------------------------------------------

 NO OUTPUT CONTROL FOR STRESS PERIOD    6   TIME STEP   13
 
 SOLVING FOR HEAD 
                                                   Max.-Head-Change                         Max.-Flux-Residual
  Residual-Control   Outer-Iter.   Inner-Iter.     Column Row Layer    Maximum-Head-Change  Column Row Layer    Maximum-Flux-Residual          L2-NORM 
          0                 1           2             4    7     1      -0.1823999928E-01       4    7    1        -0.9572261588E+00      0.2114623553E+01
          0                 2           2             4    7     1       0.1774248719E-02       4    7    1         0.9572222928E-01      0.2113318049E+00
          0                 3           2             4    7     1      -0.1208198174E-03       4    7    1        -0.6700562615E-02      0.1478131078E-01
          0                 4           1             4    7     1       0.4807533335E-05       4    7    1         0.2740533726E-03      0.6037629753E-03

    ------------------------------------------------
       NWT REQUIRED            4 OUTER ITERATIONS 
       AND A TOTAL OF          7 INNER ITERATIONS.
    ------------------------------------------------

 NO OUTPUT CONTROL FOR STRESS PERIOD    6   TIME STEP   14
 
 SOLVING FOR HEAD 
                                                   Max.-Head-Change                         Max.-Flux-Residual
  Residual-Control   Outer-Iter.   Inner-Iter.     Column Row Layer    Maximum-Head-Change  Column Row Layer    Maximum-Flux-Residual          L2-NORM 
          0                 1           2             4    7     1      -0.1805725953E-01       4    7    1        -0.9477291132E+00      0.2088630556E+01
          0                 2           2             4    7     1       0.1756473163E-02       4    7    1         0.9477252707E-01      0.2087487919E+00
          0                 3           2             4    7     1      -0.1196093674E-03       4    7    1        -0.6634083393E-02      0.1460209197E-01
          0                 4           1             4    7     1       0.4759368667E-05       4    7    1         0.2713343736E-03      0.5965405548E-03

    ------------------------------------------------
       NWT REQUIRED            4 OUTER ITERATIONS 
       AND A TOTAL OF          7 INNER ITERATIONS.
    ------------------------------------------------

 NO OUTPUT CONTROL FOR STRESS PERIOD    6   TIME STEP   15
 
 SOLVING FOR HEAD 
                                                   Max.-Head-Change                         Max.-Flux-Residual
  Residual-Control   Outer-Iter.   Inner-Iter.     Column Row Layer    Maximum-Head-Change  Column Row Layer    Maximum-Flux-Residual          L2-NORM 
          0                 1           2             4    7     1      -0.1787485521E-01       4    7    1        -0.9382393642E+00      0.2063695039E+01
          0                 2           2             4    7     1       0.1738730242E-02       4    7    1         0.9382355500E-01      0.2062699933E+00
          0                 3           1             4    7     1      -0.1184011428E-03       4    7    1        -0.6567655286E-02      0.1442985430E-01
          0                 4           1             4    7     1       0.4711295180E-05       4    7    1         0.2686174482E-03      0.5896224953E-03

    ------------------------------------------------
       NWT REQUIRED            4 OUTER ITERATIONS 
       AND A TOTAL OF          6 INNER ITERATIONS.
    ------------------------------------------------

 NO OUTPUT CONTROL FOR STRESS PERIOD    6   TIME STEP   16
 
 SOLVING FOR HEAD 
                                                   Max.-Head-Change                         Max.-Flux-Residual
  Residual-Control   Outer-Iter.   Inner-Iter.     Column Row Layer    Maximum-Head-Change  Column Row Layer    Maximum-Flux-Residual          L2-NORM 
          0                 1           2             4    7     1      -0.1769297483E-01       4    7    1        -0.9287670080E+00      0.2039758531E+01
          0                 2           2             4    7     1       0.1721038293E-02       4    7    1         0.9287632265E-01      0.2038885010E+00
          0                 3           1             4    7     1      -0.1171963864E-03       4    7    1        -0.6501348967E-02      0.1426437806E-01
          0                 4           1             4    7     1       0.4663356969E-05       4    7    1         0.2659055303E-03      0.5830154155E-03

    ------------------------------------------------
       NWT REQUIRED            4 OUTER ITERATIONS 
       AND A TOTAL OF          6 INNER ITERATIONS.
    ------------------------------------------------

 NO OUTPUT CONTROL FOR STRESS PERIOD    6   TIME STEP   17
 
 SOLVING FOR HEAD 
                                                   Max.-Head-Change                         Max.-Flux-Residual
  Residual-Control   Outer-Iter.   Inner-Iter.     Column Row Layer    Maximum-Head-Change  Column Row Layer    Maximum-Flux-Residual          L2-NORM 
          0                 1           2             4    7     1      -0.1751151718E-01       4    7    1        -0.9193070789E+00      0.2016716732E+01
          0                 2           2             4    7     1       0.1703387470E-02       4    7    1         0.9193033343E-01      0.2015951323E+00
          0                 3           1             4    7     1      -0.1159944302E-03       4    7    1        -0.6435129653E-02      0.1410465448E-01
          0                 4           1             4    7     1       0.4615530085E-05       4    7    1         0.2631971474E-03      0.5764546200E-03

    ------------------------------------------------
       NWT REQUIRED            4 OUTER ITERATIONS 
       AND A TOTAL OF          6 INNER ITERATIONS.
    ------------------------------------------------

 NO OUTPUT CONTROL FOR STRESS PERIOD    6   TIME STEP   18
 
 SOLVING FOR HEAD 
                                                   Max.-Head-Change                         Max.-Flux-Residual
  Residual-Control   Outer-Iter.   Inner-Iter.     Column Row Layer    Maximum-Head-Change  Column Row Layer    Maximum-Flux-Residual          L2-NORM 
          0                 1           2             4    7     1      -0.1733091747E-01       4    7    1        -0.9098838110E+00      0.1994520014E+01
          0                 2           2             4    7     1       0.1685820106E-02       4    7    1         0.9098801066E-01      0.1993851105E+00
          0                 3           1             4    7     1      -0.1147981573E-03       4    7    1        -0.6369166999E-02      0.1395092295E-01
          0                 4           1             4    7     1       0.4567929313E-05       4    7    1         0.2604992744E-03      0.5702328303E-03

    ------------------------------------------------
       NWT REQUIRED            4 OUTER ITERATIONS 
       AND A TOTAL OF          6 INNER ITERATIONS.
    ------------------------------------------------

 NO OUTPUT CONTROL FOR STRESS PERIOD    6   TIME STEP   19
 
 SOLVING FOR HEAD 
                                                   Max.-Head-Change                         Max.-Flux-Residual
  Residual-Control   Outer-Iter.   Inner-Iter.     Column Row Layer    Maximum-Head-Change  Column Row Layer    Maximum-Flux-Residual          L2-NORM 
          0                 1           2             4    7     1      -0.1715118556E-01       4    7    1        -0.9004976581E+00      0.1973095592E+01
          0                 2           2             4    7     1       0.1668337159E-02       4    7    1         0.9004939969E-01      0.1972507347E+00
          0                 3           1             4    7     1      -0.1136076333E-03       4    7    1        -0.6303464168E-02      0.1380233409E-01
          0                 4           1             4    7     1       0.4520557413E-05       4    7    1         0.2578120409E-03      0.5641420560E-03

    ------------------------------------------------
       NWT REQUIRED            4 OUTER ITERATIONS 
       AND A TOTAL OF          6 INNER ITERATIONS.
    ------------------------------------------------

 NO OUTPUT CONTROL FOR STRESS PERIOD    6   TIME STEP   20
 
 SOLVING FOR HEAD 
                                                   Max.-Head-Change                         Max.-Flux-Residual
  Residual-Control   Outer-Iter.   Inner-Iter.     Column Row Layer    Maximum-Head-Change  Column Row Layer    Maximum-Flux-Residual          L2-NORM 
          0                 1           2             4    7     1      -0.1697258766E-01       4    7    1        -0.8911638717E+00      0.1952394187E+01
          0                 2           2             4    7     1       0.1650964524E-02       4    7    1         0.8911602561E-01      0.1951877634E+00
          0                 3           1             4    7     1      -0.1124246203E-03       4    7    1        -0.6238127912E-02      0.1365848957E-01
          0                 4           1             4    7     1       0.4473484270E-05       4    7    1         0.2551397672E-03      0.5583754981E-03

    ------------------------------------------------
       NWT REQUIRED            4 OUTER ITERATIONS 
       AND A TOTAL OF          6 INNER ITERATIONS.
    ------------------------------------------------

 NO OUTPUT CONTROL FOR STRESS PERIOD    6   TIME STEP   21
 
 SOLVING FOR HEAD 
                                                   Max.-Head-Change                         Max.-Flux-Residual
  Residual-Control   Outer-Iter.   Inner-Iter.     Column Row Layer    Maximum-Head-Change  Column Row Layer    Maximum-Flux-Residual          L2-NORM 
          0                 1           2             4    7     1      -0.1679496925E-01       4    7    1        -0.8818741459E+00      0.1932366038E+01
          0                 2           2             4    7     1       0.1633687170E-02       4    7    1         0.8818705785E-01      0.1931910993E+00
          0                 3           1             4    7     1      -0.1112480959E-03       4    7    1        -0.6173100098E-02      0.1351926471E-01
          0                 4           1             4    7     1       0.4426668898E-05       4    7    1         0.2524801230E-03      0.5527308540E-03

    ------------------------------------------------
       NWT REQUIRED            4 OUTER ITERATIONS 
       AND A TOTAL OF          6 INNER ITERATIONS.
    ------------------------------------------------

 NO OUTPUT CONTROL FOR STRESS PERIOD    6   TIME STEP   22
 
 SOLVING FOR HEAD 
                                                   Max.-Head-Change                         Max.-Flux-Residual
  Residual-Control   Outer-Iter.   Inner-Iter.     Column Row Layer    Maximum-Head-Change  Column Row Layer    Maximum-Flux-Residual          L2-NORM 
          0                 1           2             4    7     1      -0.1661871923E-01       4    7    1        -0.8726499470E+00      0.1912964006E+01
          0                 2           2             4    7     1       0.1616542926E-02       4    7    1         0.8726464295E-01      0.1912562166E+00
          0                 3           1             4    7     1      -0.1100806357E-03       4    7    1        -0.6108530970E-02      0.1338422479E-01
          0                 4           1             4    7     1       0.4380214911E-05       4    7    1         0.2498392598E-03      0.5471907956E-03

    ------------------------------------------------
       NWT REQUIRED            4 OUTER ITERATIONS 
       AND A TOTAL OF          6 INNER ITERATIONS.
    ------------------------------------------------

 NO OUTPUT CONTROL FOR STRESS PERIOD    6   TIME STEP   23
 
 SOLVING FOR HEAD 
                                                   Max.-Head-Change                         Max.-Flux-Residual
  Residual-Control   Outer-Iter.   Inner-Iter.     Column Row Layer    Maximum-Head-Change  Column Row Layer    Maximum-Flux-Residual          L2-NORM 
          0                 1           2             4    7     1      -0.1644392927E-01       4    7    1        -0.8634966993E+00      0.1894157104E+01
          0                 2           2             4    7     1       0.1599540707E-02       4    7    1         0.8634932333E-01      0.1893803140E+00
          0                 3           1             4    7     1      -0.1089228469E-03       4    7    1        -0.6044458523E-02      0.1325343568E-01
          0                 4           1             4    7     1       0.4334145681E-05       4    7    1         0.2472186884E-03      0.5417936747E-03

    ------------------------------------------------
       NWT REQUIRED            4 OUTER ITERATIONS 
       AND A TOTAL OF          6 INNER ITERATIONS.
    ------------------------------------------------

 NO OUTPUT CONTROL FOR STRESS PERIOD    6   TIME STEP   24
 
 SOLVING FOR HEAD 
                                                   Max.-Head-Change                         Max.-Flux-Residual
  Residual-Control   Outer-Iter.   Inner-Iter.     Column Row Layer    Maximum-Head-Change  Column Row Layer    Maximum-Flux-Residual          L2-NORM 
          0                 1           2             4    7     1      -0.1627055149E-01       4    7    1        -0.8544117879E+00      0.1875906087E+01
          0                 2           2             4    7     1       0.1582675859E-02       4    7    1         0.8544083749E-01      0.1875598441E+00
          0                 3           1             4    7     1      -0.1077744127E-03       4    7    1        -0.5980864453E-02      0.1312627946E-01
          0                 4           1             4    7     1       0.4288447968E-05       4    7    1         0.2446176757E-03      0.5367068694E-03

    ------------------------------------------------
       NWT REQUIRED            4 OUTER ITERATIONS 
       AND A TOTAL OF          6 INNER ITERATIONS.
    ------------------------------------------------

 NO OUTPUT CONTROL FOR STRESS PERIOD    6   TIME STEP   25
 
 SOLVING FOR HEAD 
                                                   Max.-Head-Change                         Max.-Flux-Residual
  Residual-Control   Outer-Iter.   Inner-Iter.     Column Row Layer    Maximum-Head-Change  Column Row Layer    Maximum-Flux-Residual          L2-NORM 
          0                 1           2             4    7     1      -0.1609866059E-01       4    7    1        -0.8454000995E+00      0.1858156838E+01
          0                 2           2             4    7     1       0.1565955643E-02       4    7    1         0.8453967407E-01      0.1857937631E+00
          0                 3           1             4    7     1      -0.1066358268E-03       4    7    1        -0.5917782920E-02      0.1300307091E-01
          0                 4           1             4    7     1       0.4243142494E-05       4    7    1         0.2420376272E-03      0.5316533432E-03

    ------------------------------------------------
       NWT REQUIRED            4 OUTER ITERATIONS 
       AND A TOTAL OF          6 INNER ITERATIONS.
    ------------------------------------------------

 NO OUTPUT CONTROL FOR STRESS PERIOD    6   TIME STEP   26
 
 SOLVING FOR HEAD 
                                                   Max.-Head-Change                         Max.-Flux-Residual
  Residual-Control   Outer-Iter.   Inner-Iter.     Column Row Layer    Maximum-Head-Change  Column Row Layer    Maximum-Flux-Residual          L2-NORM 
          0                 1           2             4    7     1      -0.1592846830E-01       4    7    1        -0.8364728747E+00      0.1840912322E+01
          0                 2           2             4    7     1       0.1549400658E-02       4    7    1         0.8364695708E-01      0.1840666662E+00
          0                 3           1             4    7     1      -0.1055084927E-03       4    7    1        -0.5855292641E-02      0.1288242463E-01
          0                 4           1             4    7     1       0.4198284981E-05       4    7    1         0.2394817809E-03      0.5267189341E-03

    ------------------------------------------------
       NWT REQUIRED            4 OUTER ITERATIONS 
       AND A TOTAL OF          6 INNER ITERATIONS.
    ------------------------------------------------

 NO OUTPUT CONTROL FOR STRESS PERIOD    6   TIME STEP   27
 
 SOLVING FOR HEAD 
                                                   Max.-Head-Change                         Max.-Flux-Residual
  Residual-Control   Outer-Iter.   Inner-Iter.     Column Row Layer    Maximum-Head-Change  Column Row Layer    Maximum-Flux-Residual          L2-NORM 
          0                 1           2             4    7     1      -0.1575989510E-01       4    7    1        -0.8276263553E+00      0.1824132318E+01
          0                 2           2             4    7     1       0.1533003166E-02       4    7    1         0.8276231071E-01      0.1823914595E+00
          0                 3           1             4    7     1      -0.1043918839E-03       4    7    1        -0.5793367327E-02      0.1276529377E-01
          0                 4           1             4    7     1       0.4153854592E-05       4    7    1         0.2369490392E-03      0.5219072636E-03

    ------------------------------------------------
       NWT REQUIRED            4 OUTER ITERATIONS 
       AND A TOTAL OF          6 INNER ITERATIONS.
    ------------------------------------------------

 NO OUTPUT CONTROL FOR STRESS PERIOD    6   TIME STEP   28
 
 SOLVING FOR HEAD 
                                                   Max.-Head-Change                         Max.-Flux-Residual
  Residual-Control   Outer-Iter.   Inner-Iter.     Column Row Layer    Maximum-Head-Change  Column Row Layer    Maximum-Flux-Residual          L2-NORM 
          0                 1           2             4    7     1      -0.1559313467E-01       4    7    1        -0.8188711543E+00      0.1807790490E+01
          0                 2           2             4    7     1       0.1516782009E-02       4    7    1         0.8188679621E-01      0.1807594124E+00
          0                 3           1             4    7     1      -0.1032872825E-03       4    7    1        -0.5732081238E-02      0.1265122343E-01
          0                 4           1             4    7     1       0.4109901062E-05       4    7    1         0.2344424336E-03      0.5173255553E-03

    ------------------------------------------------
       NWT REQUIRED            4 OUTER ITERATIONS 
       AND A TOTAL OF          6 INNER ITERATIONS.
    ------------------------------------------------

 NO OUTPUT CONTROL FOR STRESS PERIOD    6   TIME STEP   29
 
 SOLVING FOR HEAD 
                                                   Max.-Head-Change                         Max.-Flux-Residual
  Residual-Control   Outer-Iter.   Inner-Iter.     Column Row Layer    Maximum-Head-Change  Column Row Layer    Maximum-Flux-Residual          L2-NORM 
          0                 1           2             4    7     1      -0.1542811198E-01       4    7    1        -0.8102025787E+00      0.1785560296E+01
          0                 2           2             4    7     1       0.1500729887E-02       4    7    1         0.8101994433E-01      0.1785555199E+00
          0                 3           1             4    7     1      -0.1021941917E-03       4    7    1        -0.5671401519E-02      0.1249888580E-01
          0                 4           1             4    7     1       0.4066406430E-05       4    7    1         0.2319606399E-03      0.5112146497E-03

    ------------------------------------------------
       NWT REQUIRED            4 OUTER ITERATIONS 
       AND A TOTAL OF          6 INNER ITERATIONS.
    ------------------------------------------------

 NO OUTPUT CONTROL FOR STRESS PERIOD    6   TIME STEP   30



 STREAM LISTING     PERIOD      6   STEP       30

 LAYER ROW COL. STREAM  RCH.  FLOW INTO     FLOW TO   FLOW OUT OF   OVRLND.     DIRECT     STREAM       STREAM     STREAM     STREAM   STREAMBED  STREAMBED
                SEG.NO.  NO.  STRM. RCH.    AQUIFER    STRM. RCH.    RUNOFF     PRECIP       ET          HEAD       DEPTH      WIDTH   CONDCTNC.   GRADIENT

   1    1    1     1     1    3.4633E+01  2.8494E-01   3.4348E+01  0.000E+00  0.000E+00  0.000E+00  1.09434E+03  1.289E+00  1.476E+01  6.643E-02  1.430E+00
   1    2    2     1     2    3.4348E+01  4.4115E-01   3.3907E+01  0.000E+00  0.000E+00  0.000E+00  1.08934E+03  1.286E+00  1.470E+01  1.029E-01  1.429E+00
   1    3    3     1     3    3.3907E+01  3.7610E-01   3.3531E+01  0.000E+00  0.000E+00  0.000E+00  1.08370E+03  1.283E+00  1.464E+01  8.782E-02  1.428E+00
   1    3    4     1     4    3.3531E+01  3.4622E-01   3.3185E+01  0.000E+00  0.000E+00  0.000E+00  1.07869E+03  1.280E+00  1.458E+01  8.090E-02  1.427E+00
   1    4    5     2     1    3.1185E+01  3.4119E-01   3.0843E+01  0.000E+00  0.000E+00  0.000E+00  1.07331E+03  1.374E+00  1.200E+01  7.800E-02  1.458E+00
   1    5    6     2     2    3.0843E+01  2.6198E-01   3.0581E+01  0.000E+00  0.000E+00  0.000E+00  1.06788E+03  1.366E+00  1.200E+01  6.000E-02  1.455E+00
   1    6    6     2     3    3.0581E+01  2.6156E-01   3.0320E+01  0.000E+00  0.000E+00  0.000E+00  1.06315E+03  1.359E+00  1.200E+01  6.000E-02  1.453E+00
   1    7    6     2     4    3.0320E+01  2.6113E-01   3.0059E+01  0.000E+00  0.000E+00  0.000E+00  1.05843E+03  1.352E+00  1.200E+01  6.000E-02  1.451E+00
   1    8    6     2     5    3.0059E+01  2.6071E-01   2.9798E+01  0.000E+00  0.000E+00  0.000E+00  1.05370E+03  1.345E+00  1.200E+01  6.000E-02  1.448E+00
   1    3    5     3     1    2.0000E+00  2.8252E-01   1.7175E+00  0.000E+00  0.000E+00  0.000E+00  1.07555E+03  1.909E+00  9.636E+00  7.227E-02  1.955E+00
   1    3    6     3     2    1.7175E+00  2.4905E-01   1.4684E+00  0.000E+00  0.000E+00  0.000E+00  1.07264E+03  1.727E+00  8.909E+00  6.682E-02  1.864E+00
   1    3    7     3     3    1.4684E+00  1.9718E-01   1.2712E+00  0.000E+00  0.000E+00  0.000E+00  1.06987E+03  1.555E+00  8.218E+00  5.547E-02  1.777E+00
   1    4    8     3     4    1.2712E+00  2.2567E-01   1.0456E+00  0.000E+00  0.000E+00  0.000E+00  1.06682E+03  1.364E+00  7.455E+00  6.709E-02  1.682E+00
   1    5    8     3     5    1.0456E+00  1.5790E-01   8.8768E-01  0.000E+00  0.000E+00  0.000E+00  1.06362E+03  1.164E+00  6.655E+00  4.991E-02  1.582E+00
   1    6    8     3     6    8.8768E-01  5.5980E-02   8.3170E-01  0.000E+00  0.000E+00  0.000E+00  1.06158E+03  1.036E+00  6.145E+00  1.844E-02  1.518E+00
   1    5   10     4     1    1.0000E+01  9.0919E-02   9.9091E+00  0.000E+00  0.000E+00  0.000E+00  1.07836E+03  6.368E-01  1.000E+01  2.500E-02  1.212E+00
   1    5    9     4     2    9.9091E+00  1.8158E-01   9.7275E+00  0.000E+00  0.000E+00  0.000E+00  1.07154E+03  6.315E-01  1.000E+01  5.000E-02  1.211E+00
   1    6    8     4     3    9.7275E+00  1.2689E-01   9.6006E+00  0.000E+00  0.000E+00  0.000E+00  1.06381E+03  6.256E-01  1.000E+01  3.500E-02  1.209E+00
   1    6    8     5     1    1.0432E+01  2.2686E-01   1.0205E+01  0.000E+00  0.000E+00  0.000E+00  1.05868E+03  6.790E-01  1.542E+01  6.166E-02  1.226E+00
   1    7    7     5     2    1.0205E+01  2.7894E-01   9.9265E+00  0.000E+00  0.000E+00  0.000E+00  1.05417E+03  6.732E-01  1.519E+01  7.594E-02  1.224E+00
   1    8    7     5     3    9.9265E+00  1.9221E-01   9.7343E+00  0.000E+00  0.000E+00  0.000E+00  1.04992E+03  6.676E-01  1.497E+01  5.241E-02  1.223E+00
   1    8    6     5     4    9.7343E+00  1.3577E-01   9.5985E+00  0.000E+00  0.000E+00  0.000E+00  1.04691E+03  6.637E-01  1.482E+01  3.706E-02  1.221E+00
   1    9    6     6     1    3.9397E+01  2.7605E-01   3.9121E+01  0.000E+00  0.000E+00  0.000E+00  1.04433E+03  1.601E+00  1.200E+01  6.000E-02  1.534E+00
   1   10    7     6     2    3.9121E+01  2.7564E-01   3.8845E+01  0.000E+00  0.000E+00  0.000E+00  1.03978E+03  1.594E+00  1.200E+01  6.000E-02  1.531E+00
   1   11    7     6     3    3.8845E+01  2.7524E-01   3.8570E+01  0.000E+00  0.000E+00  0.000E+00  1.03522E+03  1.587E+00  1.200E+01  6.000E-02  1.529E+00
   1   12    7     6     4    3.8570E+01  2.7483E-01   3.8295E+01  0.000E+00  0.000E+00  0.000E+00  1.03067E+03  1.580E+00  1.200E+01  6.000E-02  1.527E+00
   1   13    7     6     5    3.8295E+01  1.4731E-02   3.8280E+01  0.000E+00  0.000E+00  0.000E+00  1.02749E+03  1.577E+00  1.200E+01  2.400E-02  2.046E-01
   1   14    9     7     1    1.5000E+02  1.3677E+00   1.4863E+02  0.000E+00  0.000E+00  0.000E+00  1.03987E+03  2.288E+00  5.529E+01  5.593E-01  8.151E-01
   1   13    8     7     2    1.4863E+02  1.9144E+00   1.4672E+02  0.000E+00  0.000E+00  0.000E+00  1.03478E+03  2.279E+00  5.526E+01  6.148E-01  1.038E+00
   1   13    7     7     3    1.4672E+02  1.5729E+00   1.4514E+02  0.000E+00  0.000E+00  0.000E+00  1.02969E+03  2.270E+00  5.521E+01  5.584E-01  9.389E-01
   1   13    6     8     1    1.8343E+02  1.0661E+00   1.8236E+02  0.000E+00  0.000E+00  0.000E+00  1.02491E+03  3.034E+00  4.400E+01  4.483E-01  7.926E-01
   1   13    5     8     2    1.8236E+02  2.7756E-01   1.8208E+02  0.000E+00  0.000E+00  0.000E+00  1.01866E+03  3.030E+00  4.394E+01  4.477E-01  2.066E-01
   1   13    4     8     3    1.8208E+02 -2.1875E+00   1.8427E+02  0.000E+00  0.000E+00  0.000E+00  1.01241E+03  3.036E+00  4.402E+01  4.486E+00 -1.625E-01
   1   13    3     8     4    1.8427E+02 -3.5208E+00   1.8779E+02  0.000E+00  0.000E+00  0.000E+00  1.00618E+03  3.054E+00  4.428E+01  4.512E+00 -2.601E-01
   1   13    2     8     5    1.8779E+02 -2.5217E+00   1.9031E+02  0.000E+00  0.000E+00  0.000E+00  9.99947E+02  3.072E+00  4.455E+01  4.539E+00 -1.852E-01
   1   13    1     8     6    1.9031E+02 -1.9284E+00   1.9224E+02  0.000E+00  0.000E+00  0.000E+00  9.94961E+02  3.086E+00  4.474E+01  2.736E+00 -2.350E-01
   1    8    6     9     1    0.0000E+00  0.0000E+00   0.0000E+00  0.000E+00  0.000E+00  0.000E+00  1.07875E+03  0.000E+00  4.000E+00  0.000E+00  1.000E+00
   1    8    5     9     2    0.0000E+00  0.0000E+00   0.0000E+00  0.000E+00  0.000E+00  0.000E+00  1.07825E+03  0.000E+00  4.000E+00  0.000E+00  1.000E+00





UNSATURATED ZONE PACKAGE VOLUMETRIC BUDGET FOR  TIME STEP    30 STRESS PERIOD    6
  ------------------------------------------------------------------------------



     CUMULATIVE VOLUMES      L**3       RATES FOR THIS TIME STEP      L**3/T
     ------------------                 ------------------------

           IN:                                      IN:
           ---                                      ---
        INFILTRATION =    40647636.9882          INFILTRATION =           8.3175

          OUT:                                     OUT:
          ----                                     ----
              UZF ET =    40490513.3744                UZF ET =           8.3175
        UZF RECHARGE =       73224.0000          UZF RECHARGE =       0.0000E+00

            IN - OUT =       83899.6138              IN - OUT =       0.0000E+00

          STORAGE:                                 STORAGE:
          --------                                 --------
      STORAGE CHANGE =       83899.6672        STORAGE CHANGE =       1.5562E-16

 PERCENT DISCREPANCY IS DIFFERENCE BETWEEN IN-OUT MINUS CHANGE IN STORAGE
 DIVIDED BY THE AVERAGE OF IN AND OUT TIMES 100

 PERCENT DISCREPANCY =           0.00     PERCENT DISCREPANCY =           0.00






1
  VOLUMETRIC BUDGET FOR AGRICULTURAL FIELDS AT  END OF TIME STEP   30, STRESS PERIOD   6
  ------------------------------------------------------------------------------

     CUMULATIVE VOLUMES      L**3       RATES FOR THIS TIME STEP      L**3/T
     ------------------                 ------------------------

           IN:                                      IN:
           ---                                      ---
               AG WELLS  =    29429790.0000                 AG WELLS  =           7.4700
      DIVERSION SEGMENTS =           0.0000        DIVERSION SEGMENTS =           0.0000
       IRRIGATION PONDS  =           0.0000         IRRIGATION PONDS  =           0.0000
           GW IRRIGATION =           0.0000             GW IRRIGATION =           0.0000
           SW IRRIGATION =           0.0000             SW IRRIGATION =           0.0000
        SYSTEM LOSSES GW =           0.0000          SYSTEM LOSSES GW =           0.0000
        SYSTEM LOSSES SW =           0.0000          SYSTEM LOSSES SW =           0.0000

                TOTAL IN =    29429790.0000                  TOTAL IN =           7.4700

          OUT:                                     OUT:
          ----                                     ----
               AG WELLS  =           0.0000                 AG WELLS  =           0.0000
      DIVERSION SEGMENTS =           0.0000        DIVERSION SEGMENTS =           0.0000
       IRRIGATION PONDS  =           0.0000         IRRIGATION PONDS  =           0.0000
           GW IRRIGATION =    29429790.0000             GW IRRIGATION =           7.4700
           SW IRRIGATION =           0.0000             SW IRRIGATION =           0.0000
        SYSTEM LOSSES GW =           0.0000          SYSTEM LOSSES GW =           0.0000
        SYSTEM LOSSES SW =           0.0000          SYSTEM LOSSES SW =           0.0000

               TOTAL OUT =    29429790.0000                 TOTAL OUT =           7.4700

                IN - OUT =           0.0000                  IN - OUT =           0.0000

     PERCENT DISCREPANCY =           0.00         PERCENT DISCREPANCY =           0.00



1
  VOLUMETRIC BUDGET FOR ENTIRE MODEL AT END OF TIME STEP   30, STRESS PERIOD   6
  ------------------------------------------------------------------------------

     CUMULATIVE VOLUMES      L**3       RATES FOR THIS TIME STEP      L**3/T
     ------------------                 ------------------------

           IN:                                      IN:
           ---                                      ---
             STORAGE     =    32798820.0000               STORAGE     =           6.5847
       CONSTANT HEAD     =           0.0000         CONSTANT HEAD     =           0.0000
     HEAD DEP BOUNDS     =     3810178.5000       HEAD DEP BOUNDS     =           0.2879
      STREAM LEAKAGE     =   156633312.0000        STREAM LEAKAGE     =          12.5516
        UZF RECHARGE     =       73223.9531          UZF RECHARGE     =           0.0000
               GW ET     =           0.0000                 GW ET     =           0.0000
     SURFACE LEAKAGE     =           0.0000       SURFACE LEAKAGE     =           0.0000
           AG WELLS      =           0.0000             AG WELLS      =           0.0000

                TOTAL IN =   193315520.0000                  TOTAL IN =          19.4243

          OUT:                                     OUT:
          ----                                     ----
             STORAGE     =    26409580.0000               STORAGE     =           1.5046
       CONSTANT HEAD     =           0.0000         CONSTANT HEAD     =           0.0000
     HEAD DEP BOUNDS     =     3821385.5000       HEAD DEP BOUNDS     =           0.2913
      STREAM LEAKAGE     =   133656240.0000        STREAM LEAKAGE     =          10.1584
        UZF RECHARGE     =           0.0000          UZF RECHARGE     =           0.0000
               GW ET     =           0.0000                 GW ET     =           0.0000
     SURFACE LEAKAGE     =           0.0000       SURFACE LEAKAGE     =           0.0000
           AG WELLS      =    29429790.0000             AG WELLS      =           7.4700

               TOTAL OUT =   193316992.0000                 TOTAL OUT =          19.4243

                IN - OUT =       -1472.0000                  IN - OUT =      -1.5259E-05

     PERCENT DISCREPANCY =          -0.00         PERCENT DISCREPANCY =          -0.00






         TIME SUMMARY AT END OF TIME STEP   30 IN STRESS PERIOD    6
                    SECONDS     MINUTES      HOURS       DAYS        YEARS
                    -----------------------------------------------------------
   TIME STEP LENGTH  87667.      1461.1      24.352      1.0147     2.77799E-03
 STRESS PERIOD TIME 2.63000E+06  43833.      730.56      30.440     8.33397E-02
         TOTAL TIME 1.32364E+07 2.20607E+05  3676.8      153.20     0.41944    
1
1
                            STRESS PERIOD NO.    7, LENGTH =   2630000.    
                            -----------------------------------------------

                              NUMBER OF TIME STEPS =    30

                               MULTIPLIER FOR DELT =     1.000

                            INITIAL TIME STEP SIZE =   87666.66    

 REUSING NON-PARAMETER GHB CELLS FROM LAST STRESS PERIOD

      2 GHB CELLS

 REUSING STREAM SEGMENT DATA FROM LAST STRESS PERIOD



            AREAL INFILTRATION RATE
 READING ON UNIT   19 WITH FORMAT: (FREE)              

            1           2           3           4           5           6           7           8           9          10
 ........................................................................................................................
   1   1.0000E-10  2.0000E-10   0.000       0.000       0.000       0.000       0.000       0.000       0.000       0.000    
   2   2.0000E-10  1.0000E-10  2.0000E-10   0.000       0.000      8.0000E-10  8.0000E-10  5.0000E-10   0.000       0.000    
   3    0.000      5.0000E-10  1.0000E-10  1.0000E-10  8.0000E-10  8.0000E-10  5.0000E-10  5.0000E-10   0.000       0.000    
   4   8.0000E-10  5.0000E-10  1.0000E-10  1.0000E-10  1.0000E-10  1.0000E-10  1.0000E-10  1.0000E-10  2.0000E-10   0.000    
   5   8.0000E-10  5.0000E-10  1.0000E-10  1.0000E-10  1.0000E-10  1.0000E-10  1.0000E-10  1.0000E-10  1.0000E-10  1.0000E-10
   6   8.0000E-10  5.0000E-10  5.0000E-10  2.0000E-10  2.0000E-10  1.0000E-10  1.0000E-10  1.0000E-10  1.0000E-10  5.0000E-10
   7   8.0000E-10  5.0000E-10  5.0000E-10  2.0000E-10  2.0000E-10  1.0000E-10  1.0000E-10  2.0000E-10  2.0000E-10   0.000    
   8    0.000      5.0000E-10  5.0000E-10  2.0000E-10  2.0000E-10  1.0000E-10  1.0000E-10  2.0000E-10  5.0000E-10   0.000    
   9    0.000      5.0000E-10  5.0000E-10  2.0000E-10  2.0000E-10  1.0000E-10  1.0000E-10  2.0000E-10  5.0000E-10   0.000    
  10    0.000      5.0000E-10  5.0000E-10  2.0000E-10  2.0000E-10  1.0000E-10  1.0000E-10  2.0000E-10  5.0000E-10  8.0000E-10
  11    0.000      1.0000E-10  1.0000E-10  1.0000E-10  1.0000E-10  1.0000E-10  1.0000E-10  2.0000E-10  5.0000E-10   0.000    
  12   1.0000E-10  1.0000E-10  1.0000E-10  1.0000E-10  1.0000E-10  1.0000E-10  1.0000E-10  1.0000E-10  2.0000E-10   0.000    
  13   1.0000E-10  1.0000E-10  2.0000E-10  2.0000E-10  2.0000E-10  2.0000E-10  2.0000E-10  1.0000E-10  1.0000E-10   0.000    
  14    0.000      2.0000E-10  5.0000E-10  5.0000E-10  5.0000E-10  5.0000E-10  5.0000E-10  2.0000E-10  1.0000E-10   0.000    
  15    0.000       0.000      8.0000E-10  8.0000E-10  8.0000E-10  8.0000E-10   0.000       0.000       0.000       0.000    

                  ET RATE =  1.500000E-07

 USING ET EXTINCTION DEPTH FROM PREVIOUS STRESS PERIOD. CURRENT PERIOD IS:       7

 USING EXTINCTION WATER CONTENT FROM PREVIOUS STRESS PERIOD. CURRENT PERIOD IS:       7

 USING AIR ENTRY PRESSURE FROM PREVIOUS STRESS PERIOD. CURRENT PERIOD IS:       7

 USING ROOT PRESSURE HEAD FROM PREVIOUS STRESS PERIOD. CURRENT PERIOD IS:       7

 USING ROOT ACTIVITY FROM PREVIOUS STRESS PERIOD. CURRENT PERIOD IS:       7

 PROCESSING AG STRESS PERIOD DATA

 READING AG STRESS PERIOD DATA

 READING IRRIGATION SEGMENT

 READING IRRIGATION WELL

 READING SUPPLEMENTAL WELL

 NO IRRPOND OR REUSING IRRPOND DATA FROM LAST STRESS PERIOD

 END PROCESSING AG STRESS PERIOD DATA OPTIONS
 
 SOLVING FOR HEAD 
                                                   Max.-Head-Change                         Max.-Flux-Residual
  Residual-Control   Outer-Iter.   Inner-Iter.     Column Row Layer    Maximum-Head-Change  Column Row Layer    Maximum-Flux-Residual          L2-NORM 
          0                 1           2             4    7     1      -0.6314744091E-01       4    7    1        -0.3301631591E+01      0.7752851480E+01
          0                 2           2             4    7     1       0.6137372372E-02       4    7    1         0.3298862305E+00      0.7746025760E+00
          0                 3           2             4    7     1      -0.4179326875E-03       4    7    1        -0.2309206983E-01      0.5422180388E-01
          0                 4           1             4    7     1       0.1662993078E-04       4    7    1         0.9444668553E-03      0.2217645121E-02

    ------------------------------------------------
       NWT REQUIRED            4 OUTER ITERATIONS 
       AND A TOTAL OF          7 INNER ITERATIONS.
    ------------------------------------------------

 NO OUTPUT CONTROL FOR STRESS PERIOD    7   TIME STEP    1
 
 SOLVING FOR HEAD 
                                                   Max.-Head-Change                         Max.-Flux-Residual
  Residual-Control   Outer-Iter.   Inner-Iter.     Column Row Layer    Maximum-Head-Change  Column Row Layer    Maximum-Flux-Residual          L2-NORM 
          0                 1           2             4    7     1      -0.6273268074E-01       4    7    1        -0.3281082173E+01      0.7631550933E+01
          0                 2           2             4    7     1       0.6102137757E-02       4    7    1         0.3281055427E+00      0.7631424666E+00
          0                 3           2             4    7     1      -0.4155333643E-03       4    7    1        -0.2296742320E-01      0.5341964966E-01
          0                 4           1             4    7     1       0.1653445949E-04       4    7    1         0.9393688008E-03      0.2184820289E-02

    ------------------------------------------------
       NWT REQUIRED            4 OUTER ITERATIONS 
       AND A TOTAL OF          7 INNER ITERATIONS.
    ------------------------------------------------

 NO OUTPUT CONTROL FOR STRESS PERIOD    7   TIME STEP    2
 
 SOLVING FOR HEAD 
                                                   Max.-Head-Change                         Max.-Flux-Residual
  Residual-Control   Outer-Iter.   Inner-Iter.     Column Row Layer    Maximum-Head-Change  Column Row Layer    Maximum-Flux-Residual          L2-NORM 
          0                 1           2             4    7     1      -0.6230042984E-01       4    7    1        -0.3259526694E+01      0.7515884649E+01
          0                 2           2             4    7     1       0.6060089452E-02       4    7    1         0.3259498490E+00      0.7515768739E+00
          0                 3           2             4    7     1      -0.4126700510E-03       4    7    1        -0.2281652597E-01      0.5261012296E-01
          0                 4           1             4    7     1       0.1642052565E-04       4    7    1         0.9331970873E-03      0.2151729174E-02

    ------------------------------------------------
       NWT REQUIRED            4 OUTER ITERATIONS 
       AND A TOTAL OF          7 INNER ITERATIONS.
    ------------------------------------------------

 NO OUTPUT CONTROL FOR STRESS PERIOD    7   TIME STEP    3
 
 SOLVING FOR HEAD 
                                                   Max.-Head-Change                         Max.-Flux-Residual
  Residual-Control   Outer-Iter.   Inner-Iter.     Column Row Layer    Maximum-Head-Change  Column Row Layer    Maximum-Flux-Residual          L2-NORM 
          0                 1           2             4    7     1      -0.6185258719E-01       4    7    1        -0.3237069798E+01      0.7405437498E+01
          0                 2           2             4    7     1       0.6016524767E-02       4    7    1         0.3237040321E+00      0.7405330599E+00
          0                 3           2             4    7     1      -0.4097034752E-03       4    7    1        -0.2265931993E-01      0.5183713180E-01
          0                 4           1             4    7     1       0.1630248279E-04       4    7    1         0.9267673527E-03      0.2120120076E-02

    ------------------------------------------------
       NWT REQUIRED            4 OUTER ITERATIONS 
       AND A TOTAL OF          7 INNER ITERATIONS.
    ------------------------------------------------

 NO OUTPUT CONTROL FOR STRESS PERIOD    7   TIME STEP    4
 
 SOLVING FOR HEAD 
                                                   Max.-Head-Change                         Max.-Flux-Residual
  Residual-Control   Outer-Iter.   Inner-Iter.     Column Row Layer    Maximum-Head-Change  Column Row Layer    Maximum-Flux-Residual          L2-NORM 
          0                 1           2             4    7     1      -0.6139070103E-01       4    7    1        -0.3213797122E+01      0.7299818395E+01
          0                 2           2             4    7     1       0.5971594282E-02       4    7    1         0.3213766543E+00      0.7299719399E+00
          0                 3           2             4    7     1      -0.4066438911E-03       4    7    1        -0.2249640445E-01      0.5109789099E-01
          0                 4           1             4    7     1       0.1618073903E-04       4    7    1         0.9201040982E-03      0.2089899682E-02

    ------------------------------------------------
       NWT REQUIRED            4 OUTER ITERATIONS 
       AND A TOTAL OF          7 INNER ITERATIONS.
    ------------------------------------------------

 OUTPUT CONTROL FOR STRESS PERIOD    7   TIME STEP    5
    PRINT BUDGET
    SAVE BUDGET
 UBDSV1 SAVING "         STORAGE" ON UNIT 102 AT TIME STEP 5, STRESS PERIOD 7
 UBDSV2 SAVING "   CONSTANT HEAD" ON UNIT 102 AT TIME STEP 5, STRESS PERIOD 7
 UBDSV1 SAVING "FLOW RIGHT FACE " ON UNIT 102 AT TIME STEP 5, STRESS PERIOD 7
 UBDSV1 SAVING "FLOW FRONT FACE " ON UNIT 102 AT TIME STEP 5, STRESS PERIOD 7

  HEAD DEP BOUNDS   PERIOD    7   STEP     5
 BOUNDARY      1   LAYER   1   ROW    13   COL     1   RATE   -0.291282    
 BOUNDARY      2   LAYER   1   ROW    14   COL     9   RATE    0.287934    



 STREAM LISTING     PERIOD      7   STEP        5

 LAYER ROW COL. STREAM  RCH.  FLOW INTO     FLOW TO   FLOW OUT OF   OVRLND.     DIRECT     STREAM       STREAM     STREAM     STREAM   STREAMBED  STREAMBED
                SEG.NO.  NO.  STRM. RCH.    AQUIFER    STRM. RCH.    RUNOFF     PRECIP       ET          HEAD       DEPTH      WIDTH   CONDCTNC.   GRADIENT

   1    1    1     1     1    3.1125E+01  2.7165E-01   3.0853E+01  0.000E+00  0.000E+00  0.000E+00  1.09431E+03  1.259E+00  1.417E+01  6.378E-02  1.420E+00
   1    2    2     1     2    3.0853E+01  4.2045E-01   3.0433E+01  0.000E+00  0.000E+00  0.000E+00  1.08931E+03  1.256E+00  1.411E+01  9.879E-02  1.419E+00
   1    3    3     1     3    3.0433E+01  3.5834E-01   3.0075E+01  0.000E+00  0.000E+00  0.000E+00  1.08367E+03  1.252E+00  1.404E+01  8.427E-02  1.417E+00
   1    3    4     1     4    3.0075E+01  3.2976E-01   2.9745E+01  0.000E+00  0.000E+00  0.000E+00  1.07866E+03  1.249E+00  1.398E+01  7.761E-02  1.416E+00
   1    4    5     2     1    2.7745E+01  3.3390E-01   2.7411E+01  0.000E+00  0.000E+00  0.000E+00  1.07321E+03  1.281E+00  1.200E+01  7.800E-02  1.427E+00
   1    5    6     2     2    2.7411E+01  2.5635E-01   2.7155E+01  0.000E+00  0.000E+00  0.000E+00  1.06778E+03  1.273E+00  1.200E+01  6.000E-02  1.424E+00
   1    6    6     2     3    2.7155E+01  2.5592E-01   2.6899E+01  0.000E+00  0.000E+00  0.000E+00  1.06306E+03  1.265E+00  1.200E+01  6.000E-02  1.422E+00
   1    7    6     2     4    2.6899E+01  2.5549E-01   2.6643E+01  0.000E+00  0.000E+00  0.000E+00  1.05833E+03  1.258E+00  1.200E+01  6.000E-02  1.419E+00
   1    8    6     2     5    2.6643E+01  2.5506E-01   2.6388E+01  0.000E+00  0.000E+00  0.000E+00  1.05361E+03  1.251E+00  1.200E+01  6.000E-02  1.417E+00
   1    3    5     3     1    2.0000E+00  2.8252E-01   1.7175E+00  0.000E+00  0.000E+00  0.000E+00  1.07555E+03  1.909E+00  9.636E+00  7.227E-02  1.955E+00
   1    3    6     3     2    1.7175E+00  2.4905E-01   1.4684E+00  0.000E+00  0.000E+00  0.000E+00  1.07264E+03  1.727E+00  8.909E+00  6.682E-02  1.864E+00
   1    3    7     3     3    1.4684E+00  1.9718E-01   1.2712E+00  0.000E+00  0.000E+00  0.000E+00  1.06987E+03  1.555E+00  8.218E+00  5.547E-02  1.777E+00
   1    4    8     3     4    1.2712E+00  2.2567E-01   1.0456E+00  0.000E+00  0.000E+00  0.000E+00  1.06682E+03  1.364E+00  7.455E+00  6.709E-02  1.682E+00
   1    5    8     3     5    1.0456E+00  1.5790E-01   8.8768E-01  0.000E+00  0.000E+00  0.000E+00  1.06362E+03  1.164E+00  6.655E+00  4.991E-02  1.582E+00
   1    6    8     3     6    8.8768E-01  5.5980E-02   8.3170E-01  0.000E+00  0.000E+00  0.000E+00  1.06158E+03  1.036E+00  6.145E+00  1.844E-02  1.518E+00
   1    5   10     4     1    1.0000E+01  9.0919E-02   9.9091E+00  0.000E+00  0.000E+00  0.000E+00  1.07836E+03  6.368E-01  1.000E+01  2.500E-02  1.212E+00
   1    5    9     4     2    9.9091E+00  1.8158E-01   9.7275E+00  0.000E+00  0.000E+00  0.000E+00  1.07154E+03  6.315E-01  1.000E+01  5.000E-02  1.211E+00
   1    6    8     4     3    9.7275E+00  1.2689E-01   9.6006E+00  0.000E+00  0.000E+00  0.000E+00  1.06381E+03  6.256E-01  1.000E+01  3.500E-02  1.209E+00
   1    6    8     5     1    1.0432E+01  2.2686E-01   1.0205E+01  0.000E+00  0.000E+00  0.000E+00  1.05868E+03  6.790E-01  1.542E+01  6.166E-02  1.226E+00
   1    7    7     5     2    1.0205E+01  2.7894E-01   9.9265E+00  0.000E+00  0.000E+00  0.000E+00  1.05417E+03  6.732E-01  1.519E+01  7.594E-02  1.224E+00
   1    8    7     5     3    9.9265E+00  1.9221E-01   9.7343E+00  0.000E+00  0.000E+00  0.000E+00  1.04992E+03  6.676E-01  1.497E+01  5.241E-02  1.223E+00
   1    8    6     5     4    9.7343E+00  1.3577E-01   9.5985E+00  0.000E+00  0.000E+00  0.000E+00  1.04691E+03  6.637E-01  1.482E+01  3.706E-02  1.221E+00
   1    9    6     6     1    3.5987E+01  2.7095E-01   3.5716E+01  0.000E+00  0.000E+00  0.000E+00  1.04424E+03  1.516E+00  1.200E+01  6.000E-02  1.505E+00
   1   10    7     6     2    3.5716E+01  2.7054E-01   3.5445E+01  0.000E+00  0.000E+00  0.000E+00  1.03969E+03  1.509E+00  1.200E+01  6.000E-02  1.503E+00
   1   11    7     6     3    3.5445E+01  2.7013E-01   3.5175E+01  0.000E+00  0.000E+00  0.000E+00  1.03514E+03  1.502E+00  1.200E+01  6.000E-02  1.501E+00
   1   12    7     6     4    3.5175E+01  2.6971E-01   3.4905E+01  0.000E+00  0.000E+00  0.000E+00  1.03059E+03  1.495E+00  1.200E+01  6.000E-02  1.498E+00
   1   13    7     6     5    3.4905E+01  1.2639E-02   3.4893E+01  0.000E+00  0.000E+00  0.000E+00  1.02740E+03  1.492E+00  1.200E+01  2.400E-02  1.755E-01
   1   14    9     7     1    1.5000E+02  1.3678E+00   1.4863E+02  0.000E+00  0.000E+00  0.000E+00  1.03987E+03  2.288E+00  5.529E+01  5.593E-01  8.152E-01
   1   13    8     7     2    1.4863E+02  1.9141E+00   1.4672E+02  0.000E+00  0.000E+00  0.000E+00  1.03478E+03  2.279E+00  5.526E+01  6.148E-01  1.038E+00
   1   13    7     7     3    1.4672E+02  1.5718E+00   1.4515E+02  0.000E+00  0.000E+00  0.000E+00  1.02969E+03  2.270E+00  5.521E+01  5.584E-01  9.383E-01
   1   13    6     8     1    1.8004E+02  1.0483E+00   1.7899E+02  0.000E+00  0.000E+00  0.000E+00  1.02489E+03  3.013E+00  4.369E+01  4.452E-01  7.849E-01
   1   13    5     8     2    1.7899E+02  2.6504E-01   1.7873E+02  0.000E+00  0.000E+00  0.000E+00  1.01863E+03  3.009E+00  4.363E+01  4.446E-01  1.987E-01
   1   13    4     8     3    1.7873E+02 -2.2397E+00   1.8097E+02  0.000E+00  0.000E+00  0.000E+00  1.01239E+03  3.015E+00  4.372E+01  4.455E+00 -1.676E-01
   1   13    3     8     4    1.8097E+02 -3.5665E+00   1.8453E+02  0.000E+00  0.000E+00  0.000E+00  1.00616E+03  3.033E+00  4.398E+01  4.482E+00 -2.652E-01
   1   13    2     8     5    1.8453E+02 -2.5722E+00   1.8710E+02  0.000E+00  0.000E+00  0.000E+00  9.99927E+02  3.052E+00  4.426E+01  4.510E+00 -1.901E-01
   1   13    1     8     6    1.8710E+02 -1.9682E+00   1.8907E+02  0.000E+00  0.000E+00  0.000E+00  9.94941E+02  3.066E+00  4.446E+01  2.718E+00 -2.413E-01
   1    8    6     9     1    0.0000E+00  0.0000E+00   0.0000E+00  0.000E+00  0.000E+00  0.000E+00  1.07875E+03  0.000E+00  4.000E+00  0.000E+00  1.000E+00
   1    8    5     9     2    0.0000E+00  0.0000E+00   0.0000E+00  0.000E+00  0.000E+00  0.000E+00  1.07825E+03  0.000E+00  4.000E+00  0.000E+00  1.000E+00



 UBDSV3 SAVING "           GW ET" ON UNIT  61 AT TIME STEP 5, STRESS PERIOD 7
 UBDSV3 SAVING "    UZF RECHARGE" ON UNIT  61 AT TIME STEP 5, STRESS PERIOD 7
 UBDSV3 SAVING " SURFACE LEAKAGE" ON UNIT  61 AT TIME STEP 5, STRESS PERIOD 7
 UBDSV3 SAVING "       HORT+DUNN" ON UNIT  61 AT TIME STEP 5, STRESS PERIOD 7
 UBDSV3 SAVING "  STORAGE CHANGE" ON UNIT  61 AT TIME STEP 5, STRESS PERIOD 7


UNSATURATED ZONE PACKAGE VOLUMETRIC BUDGET FOR  TIME STEP     5 STRESS PERIOD    7
  ------------------------------------------------------------------------------



     CUMULATIVE VOLUMES      L**3       RATES FOR THIS TIME STEP      L**3/T
     ------------------                 ------------------------

           IN:                                      IN:
           ---                                      ---
        INFILTRATION =    50868618.8426          INFILTRATION =          23.3175

          OUT:                                     OUT:
          ----                                     ----
              UZF ET =    50711350.8538                UZF ET =          23.3175
        UZF RECHARGE =       73224.0000          UZF RECHARGE =       0.0000E+00

            IN - OUT =       84043.9888              IN - OUT =       0.0000E+00

          STORAGE:                                 STORAGE:
          --------                                 --------
      STORAGE CHANGE =       84044.1205        STORAGE CHANGE =       1.1412E-16

 PERCENT DISCREPANCY IS DIFFERENCE BETWEEN IN-OUT MINUS CHANGE IN STORAGE
 DIVIDED BY THE AVERAGE OF IN AND OUT TIMES 100

 PERCENT DISCREPANCY =           0.00     PERCENT DISCREPANCY =           0.00






 

            AG WELLS      PERIOD    7   STEP   5
 AG WELL      1   LAYER   1   ROW     6   COL     4   RATE    -3.74500    
 AG WELL      2   LAYER   1   ROW     6   COL     5   RATE    -3.74500    
 AG WELL      3   LAYER   1   ROW     7   COL     4   RATE    -3.74500    
 AG WELL      4   LAYER   1   ROW     7   COL     5   RATE    -3.74500    
 AG WELL      5   LAYER   1   ROW     8   COL     4   RATE    -3.74500    
 AG WELL      6   LAYER   1   ROW     8   COL     5   RATE    -3.74500    
 
 

   DIVERSION SEGMENTS     PERIOD    7   STEP   5
 SEGMENT      9   RATE     0.00000    
 
 

        SW IRRIGATION     PERIOD    7   STEP   5
 SEGMENT      9   ROW     6   COL     4   RATE     0.00000    
 SEGMENT      9   ROW     6   COL     5   RATE     0.00000    
 SEGMENT      9   ROW     7   COL     4   RATE     0.00000    
 SEGMENT      9   ROW     7   COL     5   RATE     0.00000    
 SEGMENT      9   ROW     8   COL     4   RATE     0.00000    
 SEGMENT      9   ROW     8   COL     5   RATE     0.00000    
 
 

        GW IRRIGATION     PERIOD    7   STEP   5
 AG WELL      1   ROW     6   COL     4   RATE     3.74500    
 AG WELL      2   ROW     6   COL     5   RATE     3.74500    
 AG WELL      3   ROW     7   COL     4   RATE     3.74500    
 AG WELL      4   ROW     7   COL     5   RATE     3.74500    
 AG WELL      5   ROW     8   COL     4   RATE     3.74500    
 AG WELL      6   ROW     8   COL     5   RATE     3.74500    
 
1
  VOLUMETRIC BUDGET FOR AGRICULTURAL FIELDS AT  END OF TIME STEP    5, STRESS PERIOD   7
  ------------------------------------------------------------------------------

     CUMULATIVE VOLUMES      L**3       RATES FOR THIS TIME STEP      L**3/T
     ------------------                 ------------------------

           IN:                                      IN:
           ---                                      ---
               AG WELLS  =    39279288.0000                 AG WELLS  =          22.4700
      DIVERSION SEGMENTS =           0.0000        DIVERSION SEGMENTS =           0.0000
       IRRIGATION PONDS  =           0.0000         IRRIGATION PONDS  =           0.0000
           GW IRRIGATION =           0.0000             GW IRRIGATION =           0.0000
           SW IRRIGATION =           0.0000             SW IRRIGATION =           0.0000
        SYSTEM LOSSES GW =           0.0000          SYSTEM LOSSES GW =           0.0000
        SYSTEM LOSSES SW =           0.0000          SYSTEM LOSSES SW =           0.0000

                TOTAL IN =    39279288.0000                  TOTAL IN =          22.4700

          OUT:                                     OUT:
          ----                                     ----
               AG WELLS  =           0.0000                 AG WELLS  =           0.0000
      DIVERSION SEGMENTS =           0.0000        DIVERSION SEGMENTS =           0.0000
       IRRIGATION PONDS  =           0.0000         IRRIGATION PONDS  =           0.0000
           GW IRRIGATION =    39279288.0000             GW IRRIGATION =          22.4700
           SW IRRIGATION =           0.0000             SW IRRIGATION =           0.0000
        SYSTEM LOSSES GW =           0.0000          SYSTEM LOSSES GW =           0.0000
        SYSTEM LOSSES SW =           0.0000          SYSTEM LOSSES SW =           0.0000

               TOTAL OUT =    39279288.0000                 TOTAL OUT =          22.4700

                IN - OUT =           0.0000                  IN - OUT =           0.0000

     PERCENT DISCREPANCY =           0.00         PERCENT DISCREPANCY =           0.00



1
  VOLUMETRIC BUDGET FOR ENTIRE MODEL AT END OF TIME STEP    5, STRESS PERIOD   7
  ------------------------------------------------------------------------------

     CUMULATIVE VOLUMES      L**3       RATES FOR THIS TIME STEP      L**3/T
     ------------------                 ------------------------

           IN:                                      IN:
           ---                                      ---
             STORAGE     =    42328152.0000               STORAGE     =          21.6847
       CONSTANT HEAD     =           0.0000         CONSTANT HEAD     =           0.0000
     HEAD DEP BOUNDS     =     3936389.0000       HEAD DEP BOUNDS     =           0.2879
      STREAM LEAKAGE     =   162069008.0000        STREAM LEAKAGE     =          12.3995
        UZF RECHARGE     =       73223.9531          UZF RECHARGE     =           0.0000
               GW ET     =           0.0000                 GW ET     =           0.0000
     SURFACE LEAKAGE     =           0.0000       SURFACE LEAKAGE     =           0.0000
           AG WELLS      =           0.0000             AG WELLS      =           0.0000

                TOTAL IN =   208406768.0000                  TOTAL IN =          34.3721

          OUT:                                     OUT:
          ----                                     ----
             STORAGE     =    26977604.0000               STORAGE     =           1.2643
       CONSTANT HEAD     =           0.0000         CONSTANT HEAD     =           0.0000
     HEAD DEP BOUNDS     =     3949066.2500       HEAD DEP BOUNDS     =           0.2913
      STREAM LEAKAGE     =   138202304.0000        STREAM LEAKAGE     =          10.3466
        UZF RECHARGE     =           0.0000          UZF RECHARGE     =           0.0000
               GW ET     =           0.0000                 GW ET     =           0.0000
     SURFACE LEAKAGE     =           0.0000       SURFACE LEAKAGE     =           0.0000
           AG WELLS      =    39279288.0000             AG WELLS      =          22.4700

               TOTAL OUT =   208408256.0000                 TOTAL OUT =          34.3722

                IN - OUT =       -1488.0000                  IN - OUT =      -6.8665E-05

     PERCENT DISCREPANCY =          -0.00         PERCENT DISCREPANCY =          -0.00






         TIME SUMMARY AT END OF TIME STEP    5 IN STRESS PERIOD    7
                    SECONDS     MINUTES      HOURS       DAYS        YEARS
                    -----------------------------------------------------------
   TIME STEP LENGTH  87667.      1461.1      24.352      1.0147     2.77799E-03
 STRESS PERIOD TIME 4.38333E+05  7305.6      121.76      5.0733     1.38899E-02
         TOTAL TIME 1.36747E+07 2.27912E+05  3798.5      158.27     0.43333    
1
 
 SOLVING FOR HEAD 
                                                   Max.-Head-Change                         Max.-Flux-Residual
  Residual-Control   Outer-Iter.   Inner-Iter.     Column Row Layer    Maximum-Head-Change  Column Row Layer    Maximum-Flux-Residual          L2-NORM 
          0                 1           2             4    7     1      -0.6091650108E-01       4    7    1        -0.3189803668E+01      0.7198697660E+01
          0                 2           2             4    7     1       0.5925466232E-02       4    7    1         0.3189772146E+00      0.7198605359E+00
          0                 3           2             4    7     1      -0.4035027545E-03       4    7    1        -0.2232844448E-01      0.5039011680E-01
          0                 4           1             4    7     1       0.1605574995E-04       4    7    1         0.9132345101E-03      0.2060948650E-02

    ------------------------------------------------
       NWT REQUIRED            4 OUTER ITERATIONS 
       AND A TOTAL OF          7 INNER ITERATIONS.
    ------------------------------------------------

 NO OUTPUT CONTROL FOR STRESS PERIOD    7   TIME STEP    6
 
 SOLVING FOR HEAD 
                                                   Max.-Head-Change                         Max.-Flux-Residual
  Residual-Control   Outer-Iter.   Inner-Iter.     Column Row Layer    Maximum-Head-Change  Column Row Layer    Maximum-Flux-Residual          L2-NORM 
          0                 1           2             4    7     1      -0.6043119727E-01       4    7    1        -0.3165157037E+01      0.7101751965E+01
          0                 2           2             4    7     1       0.5878258292E-02       4    7    1         0.3165124716E+00      0.7101665813E+00
          0                 3           2             4    7     1      -0.4002880801E-03       4    7    1        -0.2215591317E-01      0.4971161207E-01
          0                 4           1             4    7     1       0.1592783524E-04       4    7    1         0.9061779751E-03      0.2033239087E-02

    ------------------------------------------------
       NWT REQUIRED            4 OUTER ITERATIONS 
       AND A TOTAL OF          7 INNER ITERATIONS.
    ------------------------------------------------

 NO OUTPUT CONTROL FOR STRESS PERIOD    7   TIME STEP    7
 
 SOLVING FOR HEAD 
                                                   Max.-Head-Change                         Max.-Flux-Residual
  Residual-Control   Outer-Iter.   Inner-Iter.     Column Row Layer    Maximum-Head-Change  Column Row Layer    Maximum-Flux-Residual          L2-NORM 
          0                 1           2             4    7     1      -0.5993633191E-01       4    7    1        -0.3139942048E+01      0.7008712170E+01
          0                 2           2             4    7     1       0.5830120470E-02       4    7    1         0.3139909064E+00      0.7008631402E+00
          0                 3           2             4    7     1      -0.3970100818E-03       4    7    1        -0.2197940416E-01      0.4906036541E-01
          0                 4           1             4    7     1       0.1579740039E-04       4    7    1         0.8989587348E-03      0.2006556659E-02

    ------------------------------------------------
       NWT REQUIRED            4 OUTER ITERATIONS 
       AND A TOTAL OF          7 INNER ITERATIONS.
    ------------------------------------------------

 NO OUTPUT CONTROL FOR STRESS PERIOD    7   TIME STEP    8
 
 SOLVING FOR HEAD 
                                                   Max.-Head-Change                         Max.-Flux-Residual
  Residual-Control   Outer-Iter.   Inner-Iter.     Column Row Layer    Maximum-Head-Change  Column Row Layer    Maximum-Flux-Residual          L2-NORM 
          0                 1           2             4    7     1      -0.5943321082E-01       4    7    1        -0.3114231310E+01      0.6919315899E+01
          0                 2           2             4    7     1       0.5781179769E-02       4    7    1         0.3114197784E+00      0.6919239806E+00
          0                 3           2             4    7     1      -0.3936774084E-03       4    7    1        -0.2179942562E-01      0.4843464160E-01
          0                 4           1             4    7     1       0.1566479020E-04       4    7    1         0.8915975950E-03      0.1980980610E-02

    ------------------------------------------------
       NWT REQUIRED            4 OUTER ITERATIONS 
       AND A TOTAL OF          7 INNER ITERATIONS.
    ------------------------------------------------

 NO OUTPUT CONTROL FOR STRESS PERIOD    7   TIME STEP    9
 
 SOLVING FOR HEAD 
                                                   Max.-Head-Change                         Max.-Flux-Residual
  Residual-Control   Outer-Iter.   Inner-Iter.     Column Row Layer    Maximum-Head-Change  Column Row Layer    Maximum-Flux-Residual          L2-NORM 
          0                 1           2             4    7     1      -0.5892291792E-01       4    7    1        -0.3088085170E+01      0.6833323740E+01
          0                 2           2             4    7     1       0.5731541610E-02       4    7    1         0.3088051215E+00      0.6833251908E+00
          0                 3           2             4    7     1      -0.3902972397E-03       4    7    1        -0.2161639996E-01      0.4783269514E-01
          0                 4           1             4    7     1       0.1553029043E-04       4    7    1         0.8841118452E-03      0.1956351789E-02

    ------------------------------------------------
       NWT REQUIRED            4 OUTER ITERATIONS 
       AND A TOTAL OF          7 INNER ITERATIONS.
    ------------------------------------------------

 OUTPUT CONTROL FOR STRESS PERIOD    7   TIME STEP   10
    PRINT BUDGET
    SAVE BUDGET
 UBDSV1 SAVING "         STORAGE" ON UNIT 102 AT TIME STEP 10, STRESS PERIOD 7
 UBDSV2 SAVING "   CONSTANT HEAD" ON UNIT 102 AT TIME STEP 10, STRESS PERIOD 7
 UBDSV1 SAVING "FLOW RIGHT FACE " ON UNIT 102 AT TIME STEP 10, STRESS PERIOD 7
 UBDSV1 SAVING "FLOW FRONT FACE " ON UNIT 102 AT TIME STEP 10, STRESS PERIOD 7

  HEAD DEP BOUNDS   PERIOD    7   STEP    10
 BOUNDARY      1   LAYER   1   ROW    13   COL     1   RATE   -0.291268    
 BOUNDARY      2   LAYER   1   ROW    14   COL     9   RATE    0.287937    



 STREAM LISTING     PERIOD      7   STEP       10

 LAYER ROW COL. STREAM  RCH.  FLOW INTO     FLOW TO   FLOW OUT OF   OVRLND.     DIRECT     STREAM       STREAM     STREAM     STREAM   STREAMBED  STREAMBED
                SEG.NO.  NO.  STRM. RCH.    AQUIFER    STRM. RCH.    RUNOFF     PRECIP       ET          HEAD       DEPTH      WIDTH   CONDCTNC.   GRADIENT

   1    1    1     1     1    3.1125E+01  2.7165E-01   3.0853E+01  0.000E+00  0.000E+00  0.000E+00  1.09431E+03  1.259E+00  1.417E+01  6.378E-02  1.420E+00
   1    2    2     1     2    3.0853E+01  4.2045E-01   3.0433E+01  0.000E+00  0.000E+00  0.000E+00  1.08931E+03  1.256E+00  1.411E+01  9.879E-02  1.419E+00
   1    3    3     1     3    3.0433E+01  3.5834E-01   3.0075E+01  0.000E+00  0.000E+00  0.000E+00  1.08367E+03  1.252E+00  1.404E+01  8.427E-02  1.417E+00
   1    3    4     1     4    3.0075E+01  3.2976E-01   2.9745E+01  0.000E+00  0.000E+00  0.000E+00  1.07866E+03  1.249E+00  1.398E+01  7.761E-02  1.416E+00
   1    4    5     2     1    2.7745E+01  3.3390E-01   2.7411E+01  0.000E+00  0.000E+00  0.000E+00  1.07321E+03  1.281E+00  1.200E+01  7.800E-02  1.427E+00
   1    5    6     2     2    2.7411E+01  2.5635E-01   2.7155E+01  0.000E+00  0.000E+00  0.000E+00  1.06778E+03  1.273E+00  1.200E+01  6.000E-02  1.424E+00
   1    6    6     2     3    2.7155E+01  2.5592E-01   2.6899E+01  0.000E+00  0.000E+00  0.000E+00  1.06306E+03  1.265E+00  1.200E+01  6.000E-02  1.422E+00
   1    7    6     2     4    2.6899E+01  2.5549E-01   2.6643E+01  0.000E+00  0.000E+00  0.000E+00  1.05833E+03  1.258E+00  1.200E+01  6.000E-02  1.419E+00
   1    8    6     2     5    2.6643E+01  2.5506E-01   2.6388E+01  0.000E+00  0.000E+00  0.000E+00  1.05361E+03  1.251E+00  1.200E+01  6.000E-02  1.417E+00
   1    3    5     3     1    2.0000E+00  2.8252E-01   1.7175E+00  0.000E+00  0.000E+00  0.000E+00  1.07555E+03  1.909E+00  9.636E+00  7.227E-02  1.955E+00
   1    3    6     3     2    1.7175E+00  2.4905E-01   1.4684E+00  0.000E+00  0.000E+00  0.000E+00  1.07264E+03  1.727E+00  8.909E+00  6.682E-02  1.864E+00
   1    3    7     3     3    1.4684E+00  1.9718E-01   1.2712E+00  0.000E+00  0.000E+00  0.000E+00  1.06987E+03  1.555E+00  8.218E+00  5.547E-02  1.777E+00
   1    4    8     3     4    1.2712E+00  2.2567E-01   1.0456E+00  0.000E+00  0.000E+00  0.000E+00  1.06682E+03  1.364E+00  7.455E+00  6.709E-02  1.682E+00
   1    5    8     3     5    1.0456E+00  1.5790E-01   8.8768E-01  0.000E+00  0.000E+00  0.000E+00  1.06362E+03  1.164E+00  6.655E+00  4.991E-02  1.582E+00
   1    6    8     3     6    8.8768E-01  5.5980E-02   8.3170E-01  0.000E+00  0.000E+00  0.000E+00  1.06158E+03  1.036E+00  6.145E+00  1.844E-02  1.518E+00
   1    5   10     4     1    1.0000E+01  9.0919E-02   9.9091E+00  0.000E+00  0.000E+00  0.000E+00  1.07836E+03  6.368E-01  1.000E+01  2.500E-02  1.212E+00
   1    5    9     4     2    9.9091E+00  1.8158E-01   9.7275E+00  0.000E+00  0.000E+00  0.000E+00  1.07154E+03  6.315E-01  1.000E+01  5.000E-02  1.211E+00
   1    6    8     4     3    9.7275E+00  1.2689E-01   9.6006E+00  0.000E+00  0.000E+00  0.000E+00  1.06381E+03  6.256E-01  1.000E+01  3.500E-02  1.209E+00
   1    6    8     5     1    1.0432E+01  2.2686E-01   1.0205E+01  0.000E+00  0.000E+00  0.000E+00  1.05868E+03  6.790E-01  1.542E+01  6.166E-02  1.226E+00
   1    7    7     5     2    1.0205E+01  2.7894E-01   9.9265E+00  0.000E+00  0.000E+00  0.000E+00  1.05417E+03  6.732E-01  1.519E+01  7.594E-02  1.224E+00
   1    8    7     5     3    9.9265E+00  1.9221E-01   9.7343E+00  0.000E+00  0.000E+00  0.000E+00  1.04992E+03  6.676E-01  1.497E+01  5.241E-02  1.223E+00
   1    8    6     5     4    9.7343E+00  1.3577E-01   9.5985E+00  0.000E+00  0.000E+00  0.000E+00  1.04691E+03  6.637E-01  1.482E+01  3.706E-02  1.221E+00
   1    9    6     6     1    3.5987E+01  2.7095E-01   3.5716E+01  0.000E+00  0.000E+00  0.000E+00  1.04424E+03  1.516E+00  1.200E+01  6.000E-02  1.505E+00
   1   10    7     6     2    3.5716E+01  2.7054E-01   3.5445E+01  0.000E+00  0.000E+00  0.000E+00  1.03969E+03  1.509E+00  1.200E+01  6.000E-02  1.503E+00
   1   11    7     6     3    3.5445E+01  2.7013E-01   3.5175E+01  0.000E+00  0.000E+00  0.000E+00  1.03514E+03  1.502E+00  1.200E+01  6.000E-02  1.501E+00
   1   12    7     6     4    3.5175E+01  2.6971E-01   3.4905E+01  0.000E+00  0.000E+00  0.000E+00  1.03059E+03  1.495E+00  1.200E+01  6.000E-02  1.498E+00
   1   13    7     6     5    3.4905E+01  1.2597E-02   3.4893E+01  0.000E+00  0.000E+00  0.000E+00  1.02740E+03  1.492E+00  1.200E+01  2.400E-02  1.750E-01
   1   14    9     7     1    1.5000E+02  1.3678E+00   1.4863E+02  0.000E+00  0.000E+00  0.000E+00  1.03987E+03  2.288E+00  5.529E+01  5.593E-01  8.152E-01
   1   13    8     7     2    1.4863E+02  1.9138E+00   1.4672E+02  0.000E+00  0.000E+00  0.000E+00  1.03478E+03  2.279E+00  5.526E+01  6.148E-01  1.038E+00
   1   13    7     7     3    1.4672E+02  1.5709E+00   1.4515E+02  0.000E+00  0.000E+00  0.000E+00  1.02969E+03  2.270E+00  5.521E+01  5.584E-01  9.377E-01
   1   13    6     8     1    1.8004E+02  1.0475E+00   1.7899E+02  0.000E+00  0.000E+00  0.000E+00  1.02489E+03  3.013E+00  4.369E+01  4.452E-01  7.842E-01
   1   13    5     8     2    1.7899E+02  2.6410E-01   1.7873E+02  0.000E+00  0.000E+00  0.000E+00  1.01863E+03  3.009E+00  4.363E+01  4.446E-01  1.980E-01
   1   13    4     8     3    1.7873E+02 -2.2253E+00   1.8095E+02  0.000E+00  0.000E+00  0.000E+00  1.01239E+03  3.015E+00  4.372E+01  4.455E+00 -1.665E-01
   1   13    3     8     4    1.8095E+02 -3.5529E+00   1.8451E+02  0.000E+00  0.000E+00  0.000E+00  1.00616E+03  3.033E+00  4.398E+01  4.482E+00 -2.642E-01
   1   13    2     8     5    1.8451E+02 -2.5580E+00   1.8706E+02  0.000E+00  0.000E+00  0.000E+00  9.99927E+02  3.052E+00  4.426E+01  4.510E+00 -1.891E-01
   1   13    1     8     6    1.8706E+02 -1.9677E+00   1.8903E+02  0.000E+00  0.000E+00  0.000E+00  9.94941E+02  3.066E+00  4.446E+01  2.718E+00 -2.413E-01
   1    8    6     9     1    0.0000E+00  0.0000E+00   0.0000E+00  0.000E+00  0.000E+00  0.000E+00  1.07875E+03  0.000E+00  4.000E+00  0.000E+00  1.000E+00
   1    8    5     9     2    0.0000E+00  0.0000E+00   0.0000E+00  0.000E+00  0.000E+00  0.000E+00  1.07825E+03  0.000E+00  4.000E+00  0.000E+00  1.000E+00



 UBDSV3 SAVING "           GW ET" ON UNIT  61 AT TIME STEP 10, STRESS PERIOD 7
 UBDSV3 SAVING "    UZF RECHARGE" ON UNIT  61 AT TIME STEP 10, STRESS PERIOD 7
 UBDSV3 SAVING " SURFACE LEAKAGE" ON UNIT  61 AT TIME STEP 10, STRESS PERIOD 7
 UBDSV3 SAVING "       HORT+DUNN" ON UNIT  61 AT TIME STEP 10, STRESS PERIOD 7
 UBDSV3 SAVING "  STORAGE CHANGE" ON UNIT  61 AT TIME STEP 10, STRESS PERIOD 7


UNSATURATED ZONE PACKAGE VOLUMETRIC BUDGET FOR  TIME STEP    10 STRESS PERIOD    7
  ------------------------------------------------------------------------------



     CUMULATIVE VOLUMES      L**3       RATES FOR THIS TIME STEP      L**3/T
     ------------------                 ------------------------

           IN:                                      IN:
           ---                                      ---
        INFILTRATION =    61089456.3220          INFILTRATION =          23.3175

          OUT:                                     OUT:
          ----                                     ----
              UZF ET =    60932188.3332                UZF ET =          23.3175
        UZF RECHARGE =       73224.0000          UZF RECHARGE =       0.0000E+00

            IN - OUT =       84043.9888              IN - OUT =       0.0000E+00

          STORAGE:                                 STORAGE:
          --------                                 --------
      STORAGE CHANGE =       84044.1205        STORAGE CHANGE =       0.0000E+00

 PERCENT DISCREPANCY IS DIFFERENCE BETWEEN IN-OUT MINUS CHANGE IN STORAGE
 DIVIDED BY THE AVERAGE OF IN AND OUT TIMES 100

 PERCENT DISCREPANCY =           0.00     PERCENT DISCREPANCY =           0.00






 

            AG WELLS      PERIOD    7   STEP  10
 AG WELL      1   LAYER   1   ROW     6   COL     4   RATE    -3.74500    
 AG WELL      2   LAYER   1   ROW     6   COL     5   RATE    -3.74500    
 AG WELL      3   LAYER   1   ROW     7   COL     4   RATE    -3.74500    
 AG WELL      4   LAYER   1   ROW     7   COL     5   RATE    -3.74500    
 AG WELL      5   LAYER   1   ROW     8   COL     4   RATE    -3.74500    
 AG WELL      6   LAYER   1   ROW     8   COL     5   RATE    -3.74500    
 
 

   DIVERSION SEGMENTS     PERIOD    7   STEP  10
 SEGMENT      9   RATE     0.00000    
 
 

        SW IRRIGATION     PERIOD    7   STEP  10
 SEGMENT      9   ROW     6   COL     4   RATE     0.00000    
 SEGMENT      9   ROW     6   COL     5   RATE     0.00000    
 SEGMENT      9   ROW     7   COL     4   RATE     0.00000    
 SEGMENT      9   ROW     7   COL     5   RATE     0.00000    
 SEGMENT      9   ROW     8   COL     4   RATE     0.00000    
 SEGMENT      9   ROW     8   COL     5   RATE     0.00000    
 
 

        GW IRRIGATION     PERIOD    7   STEP  10
 AG WELL      1   ROW     6   COL     4   RATE     3.74500    
 AG WELL      2   ROW     6   COL     5   RATE     3.74500    
 AG WELL      3   ROW     7   COL     4   RATE     3.74500    
 AG WELL      4   ROW     7   COL     5   RATE     3.74500    
 AG WELL      5   ROW     8   COL     4   RATE     3.74500    
 AG WELL      6   ROW     8   COL     5   RATE     3.74500    
 
1
  VOLUMETRIC BUDGET FOR AGRICULTURAL FIELDS AT  END OF TIME STEP   10, STRESS PERIOD   7
  ------------------------------------------------------------------------------

     CUMULATIVE VOLUMES      L**3       RATES FOR THIS TIME STEP      L**3/T
     ------------------                 ------------------------

           IN:                                      IN:
           ---                                      ---
               AG WELLS  =    49128648.0000                 AG WELLS  =          22.4700
      DIVERSION SEGMENTS =           0.0000        DIVERSION SEGMENTS =           0.0000
       IRRIGATION PONDS  =           0.0000         IRRIGATION PONDS  =           0.0000
           GW IRRIGATION =           0.0000             GW IRRIGATION =           0.0000
           SW IRRIGATION =           0.0000             SW IRRIGATION =           0.0000
        SYSTEM LOSSES GW =           0.0000          SYSTEM LOSSES GW =           0.0000
        SYSTEM LOSSES SW =           0.0000          SYSTEM LOSSES SW =           0.0000

                TOTAL IN =    49128648.0000                  TOTAL IN =          22.4700

          OUT:                                     OUT:
          ----                                     ----
               AG WELLS  =           0.0000                 AG WELLS  =           0.0000
      DIVERSION SEGMENTS =           0.0000        DIVERSION SEGMENTS =           0.0000
       IRRIGATION PONDS  =           0.0000         IRRIGATION PONDS  =           0.0000
           GW IRRIGATION =    49128648.0000             GW IRRIGATION =          22.4700
           SW IRRIGATION =           0.0000             SW IRRIGATION =           0.0000
        SYSTEM LOSSES GW =           0.0000          SYSTEM LOSSES GW =           0.0000
        SYSTEM LOSSES SW =           0.0000          SYSTEM LOSSES SW =           0.0000

               TOTAL OUT =    49128648.0000                 TOTAL OUT =          22.4700

                IN - OUT =           0.0000                  IN - OUT =           0.0000

     PERCENT DISCREPANCY =           0.00         PERCENT DISCREPANCY =           0.00



1
  VOLUMETRIC BUDGET FOR ENTIRE MODEL AT END OF TIME STEP   10, STRESS PERIOD   7
  ------------------------------------------------------------------------------

     CUMULATIVE VOLUMES      L**3       RATES FOR THIS TIME STEP      L**3/T
     ------------------                 ------------------------

           IN:                                      IN:
           ---                                      ---
             STORAGE     =    51804496.0000               STORAGE     =          21.5789
       CONSTANT HEAD     =           0.0000         CONSTANT HEAD     =           0.0000
     HEAD DEP BOUNDS     =     4062600.7500       HEAD DEP BOUNDS     =           0.2879
      STREAM LEAKAGE     =   167503296.0000        STREAM LEAKAGE     =          12.3964
        UZF RECHARGE     =       73223.9531          UZF RECHARGE     =           0.0000
               GW ET     =           0.0000                 GW ET     =           0.0000
     SURFACE LEAKAGE     =           0.0000       SURFACE LEAKAGE     =           0.0000
           AG WELLS      =           0.0000             AG WELLS      =           0.0000

                TOTAL IN =   223443616.0000                  TOTAL IN =          34.2632

          OUT:                                     OUT:
          ----                                     ----
             STORAGE     =    27514108.0000               STORAGE     =           1.1981
       CONSTANT HEAD     =           0.0000         CONSTANT HEAD     =           0.0000
     HEAD DEP BOUNDS     =     4076741.2500       HEAD DEP BOUNDS     =           0.2913
      STREAM LEAKAGE     =   142725648.0000        STREAM LEAKAGE     =          10.3039
        UZF RECHARGE     =           0.0000          UZF RECHARGE     =           0.0000
               GW ET     =           0.0000                 GW ET     =           0.0000
     SURFACE LEAKAGE     =           0.0000       SURFACE LEAKAGE     =           0.0000
           AG WELLS      =    49128648.0000             AG WELLS      =          22.4700

               TOTAL OUT =   223445152.0000                 TOTAL OUT =          34.2633

                IN - OUT =       -1536.0000                  IN - OUT =      -7.2479E-05

     PERCENT DISCREPANCY =          -0.00         PERCENT DISCREPANCY =          -0.00






         TIME SUMMARY AT END OF TIME STEP   10 IN STRESS PERIOD    7
                    SECONDS     MINUTES      HOURS       DAYS        YEARS
                    -----------------------------------------------------------
   TIME STEP LENGTH  87667.      1461.1      24.352      1.0147     2.77799E-03
 STRESS PERIOD TIME 8.76667E+05  14611.      243.52      10.147     2.77799E-02
         TOTAL TIME 1.41131E+07 2.35218E+05  3920.3      163.35     0.44722    
1
 
 SOLVING FOR HEAD 
                                                   Max.-Head-Change                         Max.-Flux-Residual
  Residual-Control   Outer-Iter.   Inner-Iter.     Column Row Layer    Maximum-Head-Change  Column Row Layer    Maximum-Flux-Residual          L2-NORM 
          0                 1           2             4    7     1      -0.5840673004E-01       4    7    1        -0.3061574547E+01      0.6750520918E+01
          0                 2           2             4    7     1       0.5681330180E-02       4    7    1         0.3061540265E+00      0.6750452265E+00
          0                 3           2             4    7     1      -0.3868780316E-03       4    7    1        -0.2143082356E-01      0.4725315951E-01
          0                 4           1             4    7     1       0.1539423654E-04       4    7    1         0.8765217476E-03      0.1932647005E-02

    ------------------------------------------------
       NWT REQUIRED            4 OUTER ITERATIONS 
       AND A TOTAL OF          7 INNER ITERATIONS.
    ------------------------------------------------

 NO OUTPUT CONTROL FOR STRESS PERIOD    7   TIME STEP   11
 
 SOLVING FOR HEAD 
                                                   Max.-Head-Change                         Max.-Flux-Residual
  Residual-Control   Outer-Iter.   Inner-Iter.     Column Row Layer    Maximum-Head-Change  Column Row Layer    Maximum-Flux-Residual          L2-NORM 
          0                 1           2             4    7     1      -0.5788557043E-01       4    7    1        -0.3034750929E+01      0.6670711351E+01
          0                 2           2             4    7     1       0.5630635271E-02       4    7    1         0.3034716415E+00      0.6670646725E+00
          0                 3           2             4    7     1      -0.3834258985E-03       4    7    1        -0.2124305673E-01      0.4669453390E-01
          0                 4           1             4    7     1       0.1525687285E-04       4    7    1         0.8688420621E-03      0.1909802421E-02

    ------------------------------------------------
       NWT REQUIRED            4 OUTER ITERATIONS 
       AND A TOTAL OF          7 INNER ITERATIONS.
    ------------------------------------------------

 NO OUTPUT CONTROL FOR STRESS PERIOD    7   TIME STEP   12
 
 SOLVING FOR HEAD 
                                                   Max.-Head-Change                         Max.-Flux-Residual
  Residual-Control   Outer-Iter.   Inner-Iter.     Column Row Layer    Maximum-Head-Change  Column Row Layer    Maximum-Flux-Residual          L2-NORM 
          0                 1           2             4    7     1      -0.5736042746E-01       4    7    1        -0.3007669545E+01      0.6593713944E+01
          0                 2           2             4    7     1       0.5579553014E-02       4    7    1         0.3007634884E+00      0.6593652441E+00
          0                 3           2             4    7     1      -0.3799473881E-03       4    7    1        -0.2105348607E-01      0.4615557910E-01
          0                 4           1             4    7     1       0.1511846000E-04       4    7    1         0.8610886302E-03      0.1887798253E-02

    ------------------------------------------------
       NWT REQUIRED            4 OUTER ITERATIONS 
       AND A TOTAL OF          7 INNER ITERATIONS.
    ------------------------------------------------

 NO OUTPUT CONTROL FOR STRESS PERIOD    7   TIME STEP   13
 
 SOLVING FOR HEAD 
                                                   Max.-Head-Change                         Max.-Flux-Residual
  Residual-Control   Outer-Iter.   Inner-Iter.     Column Row Layer    Maximum-Head-Change  Column Row Layer    Maximum-Flux-Residual          L2-NORM 
          0                 1           2             4    7     1      -0.5683222357E-01       4    7    1        -0.2980381641E+01      0.6519372156E+01
          0                 2           2             4    7     1       0.5528173126E-02       4    7    1         0.2980346911E+00      0.6519313449E+00
          0                 3           2             4    7     1      -0.3764486088E-03       4    7    1        -0.2086247024E-01      0.4563522967E-01
          0                 4           1             4    7     1       0.1497924011E-04       4    7    1         0.8532760664E-03      0.1866488262E-02

    ------------------------------------------------
       NWT REQUIRED            4 OUTER ITERATIONS 
       AND A TOTAL OF          7 INNER ITERATIONS.
    ------------------------------------------------

 NO OUTPUT CONTROL FOR STRESS PERIOD    7   TIME STEP   14
 
 SOLVING FOR HEAD 
                                                   Max.-Head-Change                         Max.-Flux-Residual
  Residual-Control   Outer-Iter.   Inner-Iter.     Column Row Layer    Maximum-Head-Change  Column Row Layer    Maximum-Flux-Residual          L2-NORM 
          0                 1           2             4    7     1      -0.5630194108E-01       4    7    1        -0.2952942400E+01      0.6447522751E+01
          0                 2           2             4    7     1       0.5476603369E-02       4    7    1         0.2952907670E+00      0.6452010742E+00
          0                 3           2             4    7     1      -0.3729368932E-03       4    7    1        -0.2067039546E-01      0.4516408809E-01
          0                 4           1             4    7     1       0.1483950594E-04       4    7    1         0.8454202050E-03      0.1847206702E-02

    ------------------------------------------------
       NWT REQUIRED            4 OUTER ITERATIONS 
       AND A TOTAL OF          7 INNER ITERATIONS.
    ------------------------------------------------

 OUTPUT CONTROL FOR STRESS PERIOD    7   TIME STEP   15
    PRINT BUDGET
    SAVE BUDGET
 UBDSV1 SAVING "         STORAGE" ON UNIT 102 AT TIME STEP 15, STRESS PERIOD 7
 UBDSV2 SAVING "   CONSTANT HEAD" ON UNIT 102 AT TIME STEP 15, STRESS PERIOD 7
 UBDSV1 SAVING "FLOW RIGHT FACE " ON UNIT 102 AT TIME STEP 15, STRESS PERIOD 7
 UBDSV1 SAVING "FLOW FRONT FACE " ON UNIT 102 AT TIME STEP 15, STRESS PERIOD 7

  HEAD DEP BOUNDS   PERIOD    7   STEP    15
 BOUNDARY      1   LAYER   1   ROW    13   COL     1   RATE   -0.291254    
 BOUNDARY      2   LAYER   1   ROW    14   COL     9   RATE    0.287940    



 STREAM LISTING     PERIOD      7   STEP       15

 LAYER ROW COL. STREAM  RCH.  FLOW INTO     FLOW TO   FLOW OUT OF   OVRLND.     DIRECT     STREAM       STREAM     STREAM     STREAM   STREAMBED  STREAMBED
                SEG.NO.  NO.  STRM. RCH.    AQUIFER    STRM. RCH.    RUNOFF     PRECIP       ET          HEAD       DEPTH      WIDTH   CONDCTNC.   GRADIENT

   1    1    1     1     1    3.1125E+01  2.7165E-01   3.0853E+01  0.000E+00  0.000E+00  0.000E+00  1.09431E+03  1.259E+00  1.417E+01  6.378E-02  1.420E+00
   1    2    2     1     2    3.0853E+01  4.2045E-01   3.0433E+01  0.000E+00  0.000E+00  0.000E+00  1.08931E+03  1.256E+00  1.411E+01  9.879E-02  1.419E+00
   1    3    3     1     3    3.0433E+01  3.5834E-01   3.0075E+01  0.000E+00  0.000E+00  0.000E+00  1.08367E+03  1.252E+00  1.404E+01  8.427E-02  1.417E+00
   1    3    4     1     4    3.0075E+01  3.2976E-01   2.9745E+01  0.000E+00  0.000E+00  0.000E+00  1.07866E+03  1.249E+00  1.398E+01  7.761E-02  1.416E+00
   1    4    5     2     1    2.7745E+01  3.3390E-01   2.7411E+01  0.000E+00  0.000E+00  0.000E+00  1.07321E+03  1.281E+00  1.200E+01  7.800E-02  1.427E+00
   1    5    6     2     2    2.7411E+01  2.5635E-01   2.7155E+01  0.000E+00  0.000E+00  0.000E+00  1.06778E+03  1.273E+00  1.200E+01  6.000E-02  1.424E+00
   1    6    6     2     3    2.7155E+01  2.5592E-01   2.6899E+01  0.000E+00  0.000E+00  0.000E+00  1.06306E+03  1.265E+00  1.200E+01  6.000E-02  1.422E+00
   1    7    6     2     4    2.6899E+01  2.5549E-01   2.6643E+01  0.000E+00  0.000E+00  0.000E+00  1.05833E+03  1.258E+00  1.200E+01  6.000E-02  1.419E+00
   1    8    6     2     5    2.6643E+01  2.5506E-01   2.6388E+01  0.000E+00  0.000E+00  0.000E+00  1.05361E+03  1.251E+00  1.200E+01  6.000E-02  1.417E+00
   1    3    5     3     1    2.0000E+00  2.8252E-01   1.7175E+00  0.000E+00  0.000E+00  0.000E+00  1.07555E+03  1.909E+00  9.636E+00  7.227E-02  1.955E+00
   1    3    6     3     2    1.7175E+00  2.4905E-01   1.4684E+00  0.000E+00  0.000E+00  0.000E+00  1.07264E+03  1.727E+00  8.909E+00  6.682E-02  1.864E+00
   1    3    7     3     3    1.4684E+00  1.9718E-01   1.2712E+00  0.000E+00  0.000E+00  0.000E+00  1.06987E+03  1.555E+00  8.218E+00  5.547E-02  1.777E+00
   1    4    8     3     4    1.2712E+00  2.2567E-01   1.0456E+00  0.000E+00  0.000E+00  0.000E+00  1.06682E+03  1.364E+00  7.455E+00  6.709E-02  1.682E+00
   1    5    8     3     5    1.0456E+00  1.5790E-01   8.8768E-01  0.000E+00  0.000E+00  0.000E+00  1.06362E+03  1.164E+00  6.655E+00  4.991E-02  1.582E+00
   1    6    8     3     6    8.8768E-01  5.5980E-02   8.3170E-01  0.000E+00  0.000E+00  0.000E+00  1.06158E+03  1.036E+00  6.145E+00  1.844E-02  1.518E+00
   1    5   10     4     1    1.0000E+01  9.0919E-02   9.9091E+00  0.000E+00  0.000E+00  0.000E+00  1.07836E+03  6.368E-01  1.000E+01  2.500E-02  1.212E+00
   1    5    9     4     2    9.9091E+00  1.8158E-01   9.7275E+00  0.000E+00  0.000E+00  0.000E+00  1.07154E+03  6.315E-01  1.000E+01  5.000E-02  1.211E+00
   1    6    8     4     3    9.7275E+00  1.2689E-01   9.6006E+00  0.000E+00  0.000E+00  0.000E+00  1.06381E+03  6.256E-01  1.000E+01  3.500E-02  1.209E+00
   1    6    8     5     1    1.0432E+01  2.2686E-01   1.0205E+01  0.000E+00  0.000E+00  0.000E+00  1.05868E+03  6.790E-01  1.542E+01  6.166E-02  1.226E+00
   1    7    7     5     2    1.0205E+01  2.7894E-01   9.9265E+00  0.000E+00  0.000E+00  0.000E+00  1.05417E+03  6.732E-01  1.519E+01  7.594E-02  1.224E+00
   1    8    7     5     3    9.9265E+00  1.9221E-01   9.7343E+00  0.000E+00  0.000E+00  0.000E+00  1.04992E+03  6.676E-01  1.497E+01  5.241E-02  1.223E+00
   1    8    6     5     4    9.7343E+00  1.3577E-01   9.5985E+00  0.000E+00  0.000E+00  0.000E+00  1.04691E+03  6.637E-01  1.482E+01  3.706E-02  1.221E+00
   1    9    6     6     1    3.5987E+01  2.7095E-01   3.5716E+01  0.000E+00  0.000E+00  0.000E+00  1.04424E+03  1.516E+00  1.200E+01  6.000E-02  1.505E+00
   1   10    7     6     2    3.5716E+01  2.7054E-01   3.5445E+01  0.000E+00  0.000E+00  0.000E+00  1.03969E+03  1.509E+00  1.200E+01  6.000E-02  1.503E+00
   1   11    7     6     3    3.5445E+01  2.7013E-01   3.5175E+01  0.000E+00  0.000E+00  0.000E+00  1.03514E+03  1.502E+00  1.200E+01  6.000E-02  1.501E+00
   1   12    7     6     4    3.5175E+01  2.6971E-01   3.4905E+01  0.000E+00  0.000E+00  0.000E+00  1.03059E+03  1.495E+00  1.200E+01  6.000E-02  1.498E+00
   1   13    7     6     5    3.4905E+01  1.2559E-02   3.4893E+01  0.000E+00  0.000E+00  0.000E+00  1.02740E+03  1.492E+00  1.200E+01  2.400E-02  1.744E-01
   1   14    9     7     1    1.5000E+02  1.3679E+00   1.4863E+02  0.000E+00  0.000E+00  0.000E+00  1.03987E+03  2.288E+00  5.529E+01  5.593E-01  8.152E-01
   1   13    8     7     2    1.4863E+02  1.9135E+00   1.4672E+02  0.000E+00  0.000E+00  0.000E+00  1.03478E+03  2.279E+00  5.526E+01  6.148E-01  1.038E+00
   1   13    7     7     3    1.4672E+02  1.5700E+00   1.4515E+02  0.000E+00  0.000E+00  0.000E+00  1.02969E+03  2.270E+00  5.521E+01  5.584E-01  9.372E-01
   1   13    6     8     1    1.8004E+02  1.0467E+00   1.7899E+02  0.000E+00  0.000E+00  0.000E+00  1.02489E+03  3.013E+00  4.369E+01  4.452E-01  7.836E-01
   1   13    5     8     2    1.7899E+02  2.6332E-01   1.7873E+02  0.000E+00  0.000E+00  0.000E+00  1.01863E+03  3.009E+00  4.363E+01  4.446E-01  1.974E-01
   1   13    4     8     3    1.7873E+02 -2.2173E+00   1.8095E+02  0.000E+00  0.000E+00  0.000E+00  1.01239E+03  3.015E+00  4.372E+01  4.455E+00 -1.659E-01
   1   13    3     8     4    1.8095E+02 -3.5444E+00   1.8449E+02  0.000E+00  0.000E+00  0.000E+00  1.00616E+03  3.033E+00  4.398E+01  4.482E+00 -2.636E-01
   1   13    2     8     5    1.8449E+02 -2.5485E+00   1.8704E+02  0.000E+00  0.000E+00  0.000E+00  9.99927E+02  3.052E+00  4.425E+01  4.510E+00 -1.884E-01
   1   13    1     8     6    1.8704E+02 -1.9670E+00   1.8901E+02  0.000E+00  0.000E+00  0.000E+00  9.94941E+02  3.066E+00  4.446E+01  2.718E+00 -2.412E-01
   1    8    6     9     1    0.0000E+00  0.0000E+00   0.0000E+00  0.000E+00  0.000E+00  0.000E+00  1.07875E+03  0.000E+00  4.000E+00  0.000E+00  1.000E+00
   1    8    5     9     2    0.0000E+00  0.0000E+00   0.0000E+00  0.000E+00  0.000E+00  0.000E+00  1.07825E+03  0.000E+00  4.000E+00  0.000E+00  1.000E+00



 UBDSV3 SAVING "           GW ET" ON UNIT  61 AT TIME STEP 15, STRESS PERIOD 7
 UBDSV3 SAVING "    UZF RECHARGE" ON UNIT  61 AT TIME STEP 15, STRESS PERIOD 7
 UBDSV3 SAVING " SURFACE LEAKAGE" ON UNIT  61 AT TIME STEP 15, STRESS PERIOD 7
 UBDSV3 SAVING "       HORT+DUNN" ON UNIT  61 AT TIME STEP 15, STRESS PERIOD 7
 UBDSV3 SAVING "  STORAGE CHANGE" ON UNIT  61 AT TIME STEP 15, STRESS PERIOD 7


UNSATURATED ZONE PACKAGE VOLUMETRIC BUDGET FOR  TIME STEP    15 STRESS PERIOD    7
  ------------------------------------------------------------------------------



     CUMULATIVE VOLUMES      L**3       RATES FOR THIS TIME STEP      L**3/T
     ------------------                 ------------------------

           IN:                                      IN:
           ---                                      ---
        INFILTRATION =    71310293.8014          INFILTRATION =          23.3175

          OUT:                                     OUT:
          ----                                     ----
              UZF ET =    71153025.8126                UZF ET =          23.3175
        UZF RECHARGE =       73224.0000          UZF RECHARGE =       0.0000E+00

            IN - OUT =       84043.9888              IN - OUT =       0.0000E+00

          STORAGE:                                 STORAGE:
          --------                                 --------
      STORAGE CHANGE =       84044.1205        STORAGE CHANGE =      -4.1498E-17

 PERCENT DISCREPANCY IS DIFFERENCE BETWEEN IN-OUT MINUS CHANGE IN STORAGE
 DIVIDED BY THE AVERAGE OF IN AND OUT TIMES 100

 PERCENT DISCREPANCY =           0.00     PERCENT DISCREPANCY =           0.00






 

            AG WELLS      PERIOD    7   STEP  15
 AG WELL      1   LAYER   1   ROW     6   COL     4   RATE    -3.74500    
 AG WELL      2   LAYER   1   ROW     6   COL     5   RATE    -3.74500    
 AG WELL      3   LAYER   1   ROW     7   COL     4   RATE    -3.74500    
 AG WELL      4   LAYER   1   ROW     7   COL     5   RATE    -3.74500    
 AG WELL      5   LAYER   1   ROW     8   COL     4   RATE    -3.74500    
 AG WELL      6   LAYER   1   ROW     8   COL     5   RATE    -3.74500    
 
 

   DIVERSION SEGMENTS     PERIOD    7   STEP  15
 SEGMENT      9   RATE     0.00000    
 
 

        SW IRRIGATION     PERIOD    7   STEP  15
 SEGMENT      9   ROW     6   COL     4   RATE     0.00000    
 SEGMENT      9   ROW     6   COL     5   RATE     0.00000    
 SEGMENT      9   ROW     7   COL     4   RATE     0.00000    
 SEGMENT      9   ROW     7   COL     5   RATE     0.00000    
 SEGMENT      9   ROW     8   COL     4   RATE     0.00000    
 SEGMENT      9   ROW     8   COL     5   RATE     0.00000    
 
 

        GW IRRIGATION     PERIOD    7   STEP  15
 AG WELL      1   ROW     6   COL     4   RATE     3.74500    
 AG WELL      2   ROW     6   COL     5   RATE     3.74500    
 AG WELL      3   ROW     7   COL     4   RATE     3.74500    
 AG WELL      4   ROW     7   COL     5   RATE     3.74500    
 AG WELL      5   ROW     8   COL     4   RATE     3.74500    
 AG WELL      6   ROW     8   COL     5   RATE     3.74500    
 
1
  VOLUMETRIC BUDGET FOR AGRICULTURAL FIELDS AT  END OF TIME STEP   15, STRESS PERIOD   7
  ------------------------------------------------------------------------------

     CUMULATIVE VOLUMES      L**3       RATES FOR THIS TIME STEP      L**3/T
     ------------------                 ------------------------

           IN:                                      IN:
           ---                                      ---
               AG WELLS  =    58978008.0000                 AG WELLS  =          22.4700
      DIVERSION SEGMENTS =           0.0000        DIVERSION SEGMENTS =           0.0000
       IRRIGATION PONDS  =           0.0000         IRRIGATION PONDS  =           0.0000
           GW IRRIGATION =           0.0000             GW IRRIGATION =           0.0000
           SW IRRIGATION =           0.0000             SW IRRIGATION =           0.0000
        SYSTEM LOSSES GW =           0.0000          SYSTEM LOSSES GW =           0.0000
        SYSTEM LOSSES SW =           0.0000          SYSTEM LOSSES SW =           0.0000

                TOTAL IN =    58978008.0000                  TOTAL IN =          22.4700

          OUT:                                     OUT:
          ----                                     ----
               AG WELLS  =           0.0000                 AG WELLS  =           0.0000
      DIVERSION SEGMENTS =           0.0000        DIVERSION SEGMENTS =           0.0000
       IRRIGATION PONDS  =           0.0000         IRRIGATION PONDS  =           0.0000
           GW IRRIGATION =    58978008.0000             GW IRRIGATION =          22.4700
           SW IRRIGATION =           0.0000             SW IRRIGATION =           0.0000
        SYSTEM LOSSES GW =           0.0000          SYSTEM LOSSES GW =           0.0000
        SYSTEM LOSSES SW =           0.0000          SYSTEM LOSSES SW =           0.0000

               TOTAL OUT =    58978008.0000                 TOTAL OUT =          22.4700

                IN - OUT =           0.0000                  IN - OUT =           0.0000

     PERCENT DISCREPANCY =           0.00         PERCENT DISCREPANCY =           0.00



1
  VOLUMETRIC BUDGET FOR ENTIRE MODEL AT END OF TIME STEP   15, STRESS PERIOD   7
  ------------------------------------------------------------------------------

     CUMULATIVE VOLUMES      L**3       RATES FOR THIS TIME STEP      L**3/T
     ------------------                 ------------------------

           IN:                                      IN:
           ---                                      ---
             STORAGE     =    61239496.0000               STORAGE     =          21.4894
       CONSTANT HEAD     =           0.0000         CONSTANT HEAD     =           0.0000
     HEAD DEP BOUNDS     =     4188813.7500       HEAD DEP BOUNDS     =           0.2879
      STREAM LEAKAGE     =   172936336.0000        STREAM LEAKAGE     =          12.3936
        UZF RECHARGE     =       73223.9531          UZF RECHARGE     =           0.0000
               GW ET     =           0.0000                 GW ET     =           0.0000
     SURFACE LEAKAGE     =           0.0000       SURFACE LEAKAGE     =           0.0000
           AG WELLS      =           0.0000             AG WELLS      =           0.0000

                TOTAL IN =   238437856.0000                  TOTAL IN =          34.1710

          OUT:                                     OUT:
          ----                                     ----
             STORAGE     =    28022238.0000               STORAGE     =           1.1325
       CONSTANT HEAD     =           0.0000         CONSTANT HEAD     =           0.0000
     HEAD DEP BOUNDS     =     4204410.0000       HEAD DEP BOUNDS     =           0.2913
      STREAM LEAKAGE     =   147234752.0000        STREAM LEAKAGE     =          10.2773
        UZF RECHARGE     =           0.0000          UZF RECHARGE     =           0.0000
               GW ET     =           0.0000                 GW ET     =           0.0000
     SURFACE LEAKAGE     =           0.0000       SURFACE LEAKAGE     =           0.0000
           AG WELLS      =    58978008.0000             AG WELLS      =          22.4700

               TOTAL OUT =   238439424.0000                 TOTAL OUT =          34.1710

                IN - OUT =       -1568.0000                  IN - OUT =      -7.2479E-05

     PERCENT DISCREPANCY =          -0.00         PERCENT DISCREPANCY =          -0.00






         TIME SUMMARY AT END OF TIME STEP   15 IN STRESS PERIOD    7
                    SECONDS     MINUTES      HOURS       DAYS        YEARS
                    -----------------------------------------------------------
   TIME STEP LENGTH  87667.      1461.1      24.352      1.0147     2.77799E-03
 STRESS PERIOD TIME 1.31500E+06  21917.      365.28      15.220     4.16698E-02
         TOTAL TIME 1.45514E+07 2.42524E+05  4042.1      168.42     0.46111    
1
 
 SOLVING FOR HEAD 
                                                   Max.-Head-Change                         Max.-Flux-Residual
  Residual-Control   Outer-Iter.   Inner-Iter.     Column Row Layer    Maximum-Head-Change  Column Row Layer    Maximum-Flux-Residual          L2-NORM 
          0                 1           2             4    7     1      -0.5577004272E-01       4    7    1        -0.2925380041E+01      0.6377639817E+01
          0                 2           2             4    7     1       0.5424852640E-02       4    7    1         0.2925345373E+00      0.6377599252E+00
          0                 3           2             4    7     1      -0.3694128595E-03       4    7    1        -0.2047745926E-01      0.4464321873E-01
          0                 4           1             4    7     1       0.1469928099E-04       4    7    1         0.8375290956E-03      0.1825904065E-02

    ------------------------------------------------
       NWT REQUIRED            4 OUTER ITERATIONS 
       AND A TOTAL OF          7 INNER ITERATIONS.
    ------------------------------------------------

 NO OUTPUT CONTROL FOR STRESS PERIOD    7   TIME STEP   16
 
 SOLVING FOR HEAD 
                                                   Max.-Head-Change                         Max.-Flux-Residual
  Residual-Control   Outer-Iter.   Inner-Iter.     Column Row Layer    Maximum-Head-Change  Column Row Layer    Maximum-Flux-Residual          L2-NORM 
          0                 1           2             4    7     1      -0.5523755865E-01       4    7    1        -0.2897749896E+01      0.6309977210E+01
          0                 2           2             4    7     1       0.5373056650E-02       4    7    1         0.2897715347E+00      0.6309937882E+00
          0                 3           2             4    7     1      -0.3658857430E-03       4    7    1        -0.2028404889E-01      0.4416959450E-01
          0                 4           1             4    7     1       0.1455893411E-04       4    7    1         0.8296186099E-03      0.1806537277E-02

    ------------------------------------------------
       NWT REQUIRED            4 OUTER ITERATIONS 
       AND A TOTAL OF          7 INNER ITERATIONS.
    ------------------------------------------------

 NO OUTPUT CONTROL FOR STRESS PERIOD    7   TIME STEP   17
 
 SOLVING FOR HEAD 
                                                   Max.-Head-Change                         Max.-Flux-Residual
  Residual-Control   Outer-Iter.   Inner-Iter.     Column Row Layer    Maximum-Head-Change  Column Row Layer    Maximum-Flux-Residual          L2-NORM 
          0                 1           2             4    7     1      -0.5470499892E-01       4    7    1        -0.2870081426E+01      0.6244458007E+01
          0                 2           2             4    7     1       0.5321253374E-02       4    7    1         0.2870047047E+00      0.6244419852E+00
          0                 3           2             4    7     1      -0.3623581294E-03       4    7    1        -0.2009037054E-01      0.4371096946E-01
          0                 4           1             4    7     1       0.1441856720E-04       4    7    1         0.8216971562E-03      0.1787780766E-02

    ------------------------------------------------
       NWT REQUIRED            4 OUTER ITERATIONS 
       AND A TOTAL OF          7 INNER ITERATIONS.
    ------------------------------------------------

 NO OUTPUT CONTROL FOR STRESS PERIOD    7   TIME STEP   18
 
 SOLVING FOR HEAD 
                                                   Max.-Head-Change                         Max.-Flux-Residual
  Residual-Control   Outer-Iter.   Inner-Iter.     Column Row Layer    Maximum-Head-Change  Column Row Layer    Maximum-Flux-Residual          L2-NORM 
          0                 1           2             4    7     1      -0.5417284187E-01       4    7    1        -0.2842401700E+01      0.6180965201E+01
          0                 2           2             4    7     1       0.5269489337E-02       4    7    1         0.2842367537E+00      0.6180928120E+00
          0                 3           2             4    7     1      -0.3588331869E-03       4    7    1        -0.1989661368E-01      0.4326653692E-01
          0                 4           1             4    7     1       0.1427830644E-04       4    7    1         0.8137724885E-03      0.1769604516E-02

    ------------------------------------------------
       NWT REQUIRED            4 OUTER ITERATIONS 
       AND A TOTAL OF          7 INNER ITERATIONS.
    ------------------------------------------------

 NO OUTPUT CONTROL FOR STRESS PERIOD    7   TIME STEP   19
 
 SOLVING FOR HEAD 
                                                   Max.-Head-Change                         Max.-Flux-Residual
  Residual-Control   Outer-Iter.   Inner-Iter.     Column Row Layer    Maximum-Head-Change  Column Row Layer    Maximum-Flux-Residual          L2-NORM 
          0                 1           2             4    7     1      -0.5364192458E-01       4    7    1        -0.2814757569E+01      0.6119397801E+01
          0                 2           2             4    7     1       0.5217845953E-02       4    7    1         0.2814723663E+00      0.6119361639E+00
          0                 3           2             4    7     1      -0.3553164602E-03       4    7    1        -0.1970310624E-01      0.4283556799E-01
          0                 4           1             4    7     1       0.1413837252E-04       4    7    1         0.8058580213E-03      0.1751973773E-02

    ------------------------------------------------
       NWT REQUIRED            4 OUTER ITERATIONS 
       AND A TOTAL OF          7 INNER ITERATIONS.
    ------------------------------------------------

 NO OUTPUT CONTROL FOR STRESS PERIOD    7   TIME STEP   20
 
 SOLVING FOR HEAD 
                                                   Max.-Head-Change                         Max.-Flux-Residual
  Residual-Control   Outer-Iter.   Inner-Iter.     Column Row Layer    Maximum-Head-Change  Column Row Layer    Maximum-Flux-Residual          L2-NORM 
          0                 1           2             4    7     1      -0.5311262528E-01       4    7    1        -0.2787170386E+01      0.6059657237E+01
          0                 2           2             4    7     1       0.5166360010E-02       4    7    1         0.2787136773E+00      0.6059622098E+00
          0                 3           2             4    7     1      -0.3518104537E-03       4    7    1        -0.1950999764E-01      0.4241739626E-01
          0                 4           1             4    7     1       0.1399886516E-04       4    7    1         0.7979598636E-03      0.1734874542E-02

    ------------------------------------------------
       NWT REQUIRED            4 OUTER ITERATIONS 
       AND A TOTAL OF          7 INNER ITERATIONS.
    ------------------------------------------------

 NO OUTPUT CONTROL FOR STRESS PERIOD    7   TIME STEP   21
 
 SOLVING FOR HEAD 
                                                   Max.-Head-Change                         Max.-Flux-Residual
  Residual-Control   Outer-Iter.   Inner-Iter.     Column Row Layer    Maximum-Head-Change  Column Row Layer    Maximum-Flux-Residual          L2-NORM 
          0                 1           2             4    7     1      -0.5258541794E-01       4    7    1        -0.2759667113E+01      0.6001652827E+01
          0                 2           2             4    7     1       0.5115077602E-02       4    7    1         0.2759633825E+00      0.6001618533E+00
          0                 3           2             4    7     1      -0.3483183071E-03       4    7    1        -0.1931747661E-01      0.4201137202E-01
          0                 4           1             4    7     1       0.1385990948E-04       4    7    1         0.7900857509E-03      0.1718269399E-02

    ------------------------------------------------
       NWT REQUIRED            4 OUTER ITERATIONS 
       AND A TOTAL OF          7 INNER ITERATIONS.
    ------------------------------------------------

 NO OUTPUT CONTROL FOR STRESS PERIOD    7   TIME STEP   22
 
 SOLVING FOR HEAD 
                                                   Max.-Head-Change                         Max.-Flux-Residual
  Residual-Control   Outer-Iter.   Inner-Iter.     Column Row Layer    Maximum-Head-Change  Column Row Layer    Maximum-Flux-Residual          L2-NORM 
          0                 1           2             4    7     1      -0.5206087073E-01       4    7    1        -0.2732279669E+01      0.5945305254E+01
          0                 2           2             4    7     1       0.5064053996E-02       4    7    1         0.2732246735E+00      0.5945271810E+00
          0                 3           2             4    7     1      -0.3448437838E-03       4    7    1        -0.1912576657E-01      0.4161694780E-01
          0                 4           1             4    7     1       0.1372165482E-04       4    7    1         0.7822448008E-03      0.1702135832E-02

    ------------------------------------------------
       NWT REQUIRED            4 OUTER ITERATIONS 
       AND A TOTAL OF          7 INNER ITERATIONS.
    ------------------------------------------------

 NO OUTPUT CONTROL FOR STRESS PERIOD    7   TIME STEP   23
 
 SOLVING FOR HEAD 
                                                   Max.-Head-Change                         Max.-Flux-Residual
  Residual-Control   Outer-Iter.   Inner-Iter.     Column Row Layer    Maximum-Head-Change  Column Row Layer    Maximum-Flux-Residual          L2-NORM 
          0                 1           2             4    7     1      -0.5153910109E-01       4    7    1        -0.2705015476E+01      0.5890522543E+01
          0                 2           2             4    7     1       0.5013300608E-02       4    7    1         0.2704982920E+00      0.5890489847E+00
          0                 3           2             4    7     1      -0.3413876608E-03       4    7    1        -0.1893491944E-01      0.4123346584E-01
          0                 4           1             4    7     1       0.1358413260E-04       4    7    1         0.7744391417E-03      0.1686448862E-02

    ------------------------------------------------
       NWT REQUIRED            4 OUTER ITERATIONS 
       AND A TOTAL OF          7 INNER ITERATIONS.
    ------------------------------------------------

 NO OUTPUT CONTROL FOR STRESS PERIOD    7   TIME STEP   24
 
 SOLVING FOR HEAD 
                                                   Max.-Head-Change                         Max.-Flux-Residual
  Residual-Control   Outer-Iter.   Inner-Iter.     Column Row Layer    Maximum-Head-Change  Column Row Layer    Maximum-Flux-Residual          L2-NORM 
          0                 1           2             4    7     1      -0.5102074764E-01       4    7    1        -0.2677910007E+01      0.5837247265E+01
          0                 2           2             4    7     1       0.4962879554E-02       4    7    1         0.2677877852E+00      0.5837215575E+00
          0                 3           2             4    7     1      -0.3379541679E-03       4    7    1        -0.1874518349E-01      0.4086055290E-01
          0                 4           1             4    7     1       0.1344751068E-04       4    7    1         0.7666789400E-03      0.1671199498E-02

    ------------------------------------------------
       NWT REQUIRED            4 OUTER ITERATIONS 
       AND A TOTAL OF          7 INNER ITERATIONS.
    ------------------------------------------------

 NO OUTPUT CONTROL FOR STRESS PERIOD    7   TIME STEP   25
 
 SOLVING FOR HEAD 
                                                   Max.-Head-Change                         Max.-Flux-Residual
  Residual-Control   Outer-Iter.   Inner-Iter.     Column Row Layer    Maximum-Head-Change  Column Row Layer    Maximum-Flux-Residual          L2-NORM 
          0                 1           2             4    7     1      -0.5050599297E-01       4    7    1        -0.2650974337E+01      0.5785398022E+01
          0                 2           2             4    7     1       0.4912808589E-02       4    7    1         0.2650942601E+00      0.5785366902E+00
          0                 3           2             4    7     1      -0.3345445144E-03       4    7    1        -0.1855663624E-01      0.4049761305E-01
          0                 4           1             4    7     1       0.1331183740E-04       4    7    1         0.7589673432E-03      0.1656353665E-02

    ------------------------------------------------
       NWT REQUIRED            4 OUTER ITERATIONS 
       AND A TOTAL OF          7 INNER ITERATIONS.
    ------------------------------------------------

 NO OUTPUT CONTROL FOR STRESS PERIOD    7   TIME STEP   26
 
 SOLVING FOR HEAD 
                                                   Max.-Head-Change                         Max.-Flux-Residual
  Residual-Control   Outer-Iter.   Inner-Iter.     Column Row Layer    Maximum-Head-Change  Column Row Layer    Maximum-Flux-Residual          L2-NORM 
          0                 1           2             4    7     1      -0.4999513342E-01       4    7    1        -0.2624225278E+01      0.5734929042E+01
          0                 2           2             4    7     1       0.4863116537E-02       4    7    1         0.2624193977E+00      0.5734898609E+00
          0                 3           2             4    7     1      -0.3311606638E-03       4    7    1        -0.1836939539E-01      0.4014433381E-01
          0                 4           1             4    7     1       0.1317719107E-04       4    7    1         0.7513091907E-03      0.1641905952E-02

    ------------------------------------------------
       NWT REQUIRED            4 OUTER ITERATIONS 
       AND A TOTAL OF          7 INNER ITERATIONS.
    ------------------------------------------------

 NO OUTPUT CONTROL FOR STRESS PERIOD    7   TIME STEP   27
 
 SOLVING FOR HEAD 
                                                   Max.-Head-Change                         Max.-Flux-Residual
  Residual-Control   Outer-Iter.   Inner-Iter.     Column Row Layer    Maximum-Head-Change  Column Row Layer    Maximum-Flux-Residual          L2-NORM 
          0                 1           2             4    7     1      -0.4948856745E-01       4    7    1        -0.2597685539E+01      0.5685765797E+01
          0                 2           2             4    7     1       0.4813842153E-02       4    7    1         0.2597654686E+00      0.5685736077E+00
          0                 3           2             4    7     1      -0.3278052541E-03       4    7    1        -0.1818361985E-01      0.3980019736E-01
          0                 4           1             4    7     1       0.1304367610E-04       4    7    1         0.7437109525E-03      0.1627830574E-02

    ------------------------------------------------
       NWT REQUIRED            4 OUTER ITERATIONS 
       AND A TOTAL OF          7 INNER ITERATIONS.
    ------------------------------------------------

 NO OUTPUT CONTROL FOR STRESS PERIOD    7   TIME STEP   28
 
 SOLVING FOR HEAD 
                                                   Max.-Head-Change                         Max.-Flux-Residual
  Residual-Control   Outer-Iter.   Inner-Iter.     Column Row Layer    Maximum-Head-Change  Column Row Layer    Maximum-Flux-Residual          L2-NORM 
          0                 1           2             4    7     1      -0.4898639310E-01       4    7    1        -0.2571361093E+01      0.5637859070E+01
          0                 2           2             4    7     1       0.4764994971E-02       4    7    1         0.2571330701E+00      0.5637829973E+00
          0                 3           2             4    7     1      -0.3244789354E-03       4    7    1        -0.1799935144E-01      0.3946485243E-01
          0                 4           1             4    7     1       0.1291131850E-04       4    7    1         0.7361743646E-03      0.1614116151E-02

    ------------------------------------------------
       NWT REQUIRED            4 OUTER ITERATIONS 
       AND A TOTAL OF          7 INNER ITERATIONS.
    ------------------------------------------------

 NO OUTPUT CONTROL FOR STRESS PERIOD    7   TIME STEP   29
 
 SOLVING FOR HEAD 
                                                   Max.-Head-Change                         Max.-Flux-Residual
  Residual-Control   Outer-Iter.   Inner-Iter.     Column Row Layer    Maximum-Head-Change  Column Row Layer    Maximum-Flux-Residual          L2-NORM 
          0                 1           2             4    7     1      -0.4848883962E-01       4    7    1        -0.2545264367E+01      0.5592712754E+01
          0                 2           2             4    7     1       0.4716597287E-02       4    7    1         0.2545234445E+00      0.5592645205E+00
          0                 3           2             4    7     1      -0.3211832256E-03       4    7    1        -0.1781667711E-01      0.3914821536E-01
          0                 4           1             4    7     1       0.1278017964E-04       4    7    1         0.7287029860E-03      0.1601144611E-02

    ------------------------------------------------
       NWT REQUIRED            4 OUTER ITERATIONS 
       AND A TOTAL OF          7 INNER ITERATIONS.
    ------------------------------------------------

 NO OUTPUT CONTROL FOR STRESS PERIOD    7   TIME STEP   30



 STREAM LISTING     PERIOD      7   STEP       30

 LAYER ROW COL. STREAM  RCH.  FLOW INTO     FLOW TO   FLOW OUT OF   OVRLND.     DIRECT     STREAM       STREAM     STREAM     STREAM   STREAMBED  STREAMBED
                SEG.NO.  NO.  STRM. RCH.    AQUIFER    STRM. RCH.    RUNOFF     PRECIP       ET          HEAD       DEPTH      WIDTH   CONDCTNC.   GRADIENT

   1    1    1     1     1    2.8852E+01  2.6229E-01   2.8590E+01  0.000E+00  0.000E+00  0.000E+00  1.09428E+03  1.233E+00  1.377E+01  6.197E-02  1.411E+00
   1    2    2     1     2    2.8590E+01  4.0577E-01   2.8184E+01  0.000E+00  0.000E+00  0.000E+00  1.08929E+03  1.228E+00  1.371E+01  9.596E-02  1.409E+00
   1    3    3     1     3    2.8184E+01  3.4562E-01   2.7838E+01  0.000E+00  0.000E+00  0.000E+00  1.08364E+03  1.223E+00  1.364E+01  8.184E-02  1.408E+00
   1    3    4     1     4    2.7838E+01  3.1791E-01   2.7521E+01  0.000E+00  0.000E+00  0.000E+00  1.07863E+03  1.219E+00  1.358E+01  7.536E-02  1.406E+00
   1    4    5     2     1    2.5521E+01  3.2899E-01   2.5192E+01  0.000E+00  0.000E+00  0.000E+00  1.07315E+03  1.218E+00  1.200E+01  7.800E-02  1.406E+00
   1    5    6     2     2    2.5192E+01  2.5257E-01   2.4939E+01  0.000E+00  0.000E+00  0.000E+00  1.06772E+03  1.209E+00  1.200E+01  6.000E-02  1.403E+00
   1    6    6     2     3    2.4939E+01  2.5213E-01   2.4687E+01  0.000E+00  0.000E+00  0.000E+00  1.06299E+03  1.202E+00  1.200E+01  6.000E-02  1.401E+00
   1    7    6     2     4    2.4687E+01  2.5169E-01   2.4435E+01  0.000E+00  0.000E+00  0.000E+00  1.05827E+03  1.195E+00  1.200E+01  6.000E-02  1.398E+00
   1    8    6     2     5    2.4435E+01  2.5125E-01   2.4184E+01  0.000E+00  0.000E+00  0.000E+00  1.05355E+03  1.187E+00  1.200E+01  6.000E-02  1.396E+00
   1    3    5     3     1    2.0000E+00  2.8252E-01   1.7175E+00  0.000E+00  0.000E+00  0.000E+00  1.07555E+03  1.909E+00  9.636E+00  7.227E-02  1.955E+00
   1    3    6     3     2    1.7175E+00  2.4905E-01   1.4684E+00  0.000E+00  0.000E+00  0.000E+00  1.07264E+03  1.727E+00  8.909E+00  6.682E-02  1.864E+00
   1    3    7     3     3    1.4684E+00  1.9718E-01   1.2712E+00  0.000E+00  0.000E+00  0.000E+00  1.06987E+03  1.555E+00  8.218E+00  5.547E-02  1.777E+00
   1    4    8     3     4    1.2712E+00  2.2567E-01   1.0456E+00  0.000E+00  0.000E+00  0.000E+00  1.06682E+03  1.364E+00  7.455E+00  6.709E-02  1.682E+00
   1    5    8     3     5    1.0456E+00  1.5790E-01   8.8768E-01  0.000E+00  0.000E+00  0.000E+00  1.06362E+03  1.164E+00  6.655E+00  4.991E-02  1.582E+00
   1    6    8     3     6    8.8768E-01  5.5980E-02   8.3170E-01  0.000E+00  0.000E+00  0.000E+00  1.06158E+03  1.036E+00  6.145E+00  1.844E-02  1.518E+00
   1    5   10     4     1    1.0000E+01  9.0919E-02   9.9091E+00  0.000E+00  0.000E+00  0.000E+00  1.07836E+03  6.368E-01  1.000E+01  2.500E-02  1.212E+00
   1    5    9     4     2    9.9091E+00  1.8158E-01   9.7275E+00  0.000E+00  0.000E+00  0.000E+00  1.07154E+03  6.315E-01  1.000E+01  5.000E-02  1.211E+00
   1    6    8     4     3    9.7275E+00  1.2689E-01   9.6006E+00  0.000E+00  0.000E+00  0.000E+00  1.06381E+03  6.256E-01  1.000E+01  3.500E-02  1.209E+00
   1    6    8     5     1    1.0432E+01  2.2686E-01   1.0205E+01  0.000E+00  0.000E+00  0.000E+00  1.05868E+03  6.790E-01  1.542E+01  6.166E-02  1.226E+00
   1    7    7     5     2    1.0205E+01  2.7894E-01   9.9265E+00  0.000E+00  0.000E+00  0.000E+00  1.05417E+03  6.732E-01  1.519E+01  7.594E-02  1.224E+00
   1    8    7     5     3    9.9265E+00  1.9221E-01   9.7343E+00  0.000E+00  0.000E+00  0.000E+00  1.04992E+03  6.676E-01  1.497E+01  5.241E-02  1.223E+00
   1    8    6     5     4    9.7343E+00  1.3577E-01   9.5985E+00  0.000E+00  0.000E+00  0.000E+00  1.04691E+03  6.637E-01  1.482E+01  3.706E-02  1.221E+00
   1    9    6     6     1    3.3782E+01  2.6756E-01   3.3515E+01  0.000E+00  0.000E+00  0.000E+00  1.04419E+03  1.459E+00  1.200E+01  6.000E-02  1.486E+00
   1   10    7     6     2    3.3515E+01  2.6714E-01   3.3248E+01  0.000E+00  0.000E+00  0.000E+00  1.03963E+03  1.452E+00  1.200E+01  6.000E-02  1.484E+00
   1   11    7     6     3    3.3248E+01  2.6672E-01   3.2981E+01  0.000E+00  0.000E+00  0.000E+00  1.03508E+03  1.445E+00  1.200E+01  6.000E-02  1.482E+00
   1   12    7     6     4    3.2981E+01  2.6630E-01   3.2715E+01  0.000E+00  0.000E+00  0.000E+00  1.03053E+03  1.438E+00  1.200E+01  6.000E-02  1.479E+00
   1   13    7     6     5    3.2715E+01  1.1091E-02   3.2704E+01  0.000E+00  0.000E+00  0.000E+00  1.02734E+03  1.435E+00  1.200E+01  2.400E-02  1.540E-01
   1   14    9     7     1    1.5000E+02  1.3680E+00   1.4863E+02  0.000E+00  0.000E+00  0.000E+00  1.03987E+03  2.288E+00  5.529E+01  5.593E-01  8.153E-01
   1   13    8     7     2    1.4863E+02  1.9126E+00   1.4672E+02  0.000E+00  0.000E+00  0.000E+00  1.03478E+03  2.279E+00  5.526E+01  6.148E-01  1.037E+00
   1   13    7     7     3    1.4672E+02  1.5676E+00   1.4515E+02  0.000E+00  0.000E+00  0.000E+00  1.02969E+03  2.270E+00  5.521E+01  5.584E-01  9.358E-01
   1   13    6     8     1    1.7786E+02  1.0337E+00   1.7682E+02  0.000E+00  0.000E+00  0.000E+00  1.02487E+03  2.999E+00  4.349E+01  4.432E-01  7.774E-01
   1   13    5     8     2    1.7682E+02  2.5431E-01   1.7657E+02  0.000E+00  0.000E+00  0.000E+00  1.01862E+03  2.995E+00  4.343E+01  4.426E-01  1.915E-01
   1   13    4     8     3    1.7657E+02 -2.2569E+00   1.7882E+02  0.000E+00  0.000E+00  0.000E+00  1.01238E+03  3.002E+00  4.352E+01  4.435E+00 -1.696E-01
   1   13    3     8     4    1.7882E+02 -3.5746E+00   1.8240E+02  0.000E+00  0.000E+00  0.000E+00  1.00615E+03  3.020E+00  4.379E+01  4.462E+00 -2.670E-01
   1   13    2     8     5    1.8240E+02 -2.5787E+00   1.8498E+02  0.000E+00  0.000E+00  0.000E+00  9.99914E+02  3.039E+00  4.407E+01  4.491E+00 -1.914E-01
   1   13    1     8     6    1.8498E+02 -1.9895E+00   1.8697E+02  0.000E+00  0.000E+00  0.000E+00  9.94928E+02  3.053E+00  4.427E+01  2.707E+00 -2.450E-01
   1    8    6     9     1    0.0000E+00  0.0000E+00   0.0000E+00  0.000E+00  0.000E+00  0.000E+00  1.07875E+03  0.000E+00  4.000E+00  0.000E+00  1.000E+00
   1    8    5     9     2    0.0000E+00  0.0000E+00   0.0000E+00  0.000E+00  0.000E+00  0.000E+00  1.07825E+03  0.000E+00  4.000E+00  0.000E+00  1.000E+00





UNSATURATED ZONE PACKAGE VOLUMETRIC BUDGET FOR  TIME STEP    30 STRESS PERIOD    7
  ------------------------------------------------------------------------------



     CUMULATIVE VOLUMES      L**3       RATES FOR THIS TIME STEP      L**3/T
     ------------------                 ------------------------

           IN:                                      IN:
           ---                                      ---
        INFILTRATION =   101972806.2396          INFILTRATION =          23.3175

          OUT:                                     OUT:
          ----                                     ----
              UZF ET =   101815538.2508                UZF ET =          23.3175
        UZF RECHARGE =       73224.0000          UZF RECHARGE =       0.0000E+00

            IN - OUT =       84043.9888              IN - OUT =       0.0000E+00

          STORAGE:                                 STORAGE:
          --------                                 --------
      STORAGE CHANGE =       84044.1205        STORAGE CHANGE =       1.5562E-16

 PERCENT DISCREPANCY IS DIFFERENCE BETWEEN IN-OUT MINUS CHANGE IN STORAGE
 DIVIDED BY THE AVERAGE OF IN AND OUT TIMES 100

 PERCENT DISCREPANCY =           0.00     PERCENT DISCREPANCY =           0.00






1
  VOLUMETRIC BUDGET FOR AGRICULTURAL FIELDS AT  END OF TIME STEP   30, STRESS PERIOD   7
  ------------------------------------------------------------------------------

     CUMULATIVE VOLUMES      L**3       RATES FOR THIS TIME STEP      L**3/T
     ------------------                 ------------------------

           IN:                                      IN:
           ---                                      ---
               AG WELLS  =    88526088.0000                 AG WELLS  =          22.4700
      DIVERSION SEGMENTS =           0.0000        DIVERSION SEGMENTS =           0.0000
       IRRIGATION PONDS  =           0.0000         IRRIGATION PONDS  =           0.0000
           GW IRRIGATION =           0.0000             GW IRRIGATION =           0.0000
           SW IRRIGATION =           0.0000             SW IRRIGATION =           0.0000
        SYSTEM LOSSES GW =           0.0000          SYSTEM LOSSES GW =           0.0000
        SYSTEM LOSSES SW =           0.0000          SYSTEM LOSSES SW =           0.0000

                TOTAL IN =    88526088.0000                  TOTAL IN =          22.4700

          OUT:                                     OUT:
          ----                                     ----
               AG WELLS  =           0.0000                 AG WELLS  =           0.0000
      DIVERSION SEGMENTS =           0.0000        DIVERSION SEGMENTS =           0.0000
       IRRIGATION PONDS  =           0.0000         IRRIGATION PONDS  =           0.0000
           GW IRRIGATION =    88526088.0000             GW IRRIGATION =          22.4700
           SW IRRIGATION =           0.0000             SW IRRIGATION =           0.0000
        SYSTEM LOSSES GW =           0.0000          SYSTEM LOSSES GW =           0.0000
        SYSTEM LOSSES SW =           0.0000          SYSTEM LOSSES SW =           0.0000

               TOTAL OUT =    88526088.0000                 TOTAL OUT =          22.4700

                IN - OUT =           0.0000                  IN - OUT =           0.0000

     PERCENT DISCREPANCY =           0.00         PERCENT DISCREPANCY =           0.00



1
  VOLUMETRIC BUDGET FOR ENTIRE MODEL AT END OF TIME STEP   30, STRESS PERIOD   7
  ------------------------------------------------------------------------------

     CUMULATIVE VOLUMES      L**3       RATES FOR THIS TIME STEP      L**3/T
     ------------------                 ------------------------

           IN:                                      IN:
           ---                                      ---
             STORAGE     =    89378600.0000               STORAGE     =          21.4889
       CONSTANT HEAD     =           0.0000         CONSTANT HEAD     =           0.0000
     HEAD DEP BOUNDS     =     4567460.5000       HEAD DEP BOUNDS     =           0.2879
      STREAM LEAKAGE     =   189219744.0000        STREAM LEAKAGE     =          12.2846
        UZF RECHARGE     =       73223.9531          UZF RECHARGE     =           0.0000
               GW ET     =           0.0000                 GW ET     =           0.0000
     SURFACE LEAKAGE     =           0.0000       SURFACE LEAKAGE     =           0.0000
           AG WELLS      =           0.0000             AG WELLS      =           0.0000

                TOTAL IN =   283239040.0000                  TOTAL IN =          34.0615

          OUT:                                     OUT:
          ----                                     ----
             STORAGE     =    29392224.0000               STORAGE     =           0.9007
       CONSTANT HEAD     =           0.0000         CONSTANT HEAD     =           0.0000
     HEAD DEP BOUNDS     =     4587382.5000       HEAD DEP BOUNDS     =           0.2912
      STREAM LEAKAGE     =   160734960.0000        STREAM LEAKAGE     =          10.3996
        UZF RECHARGE     =           0.0000          UZF RECHARGE     =           0.0000
               GW ET     =           0.0000                 GW ET     =           0.0000
     SURFACE LEAKAGE     =           0.0000       SURFACE LEAKAGE     =           0.0000
           AG WELLS      =    88526088.0000             AG WELLS      =          22.4700

               TOTAL OUT =   283240640.0000                 TOTAL OUT =          34.0615

                IN - OUT =       -1600.0000                  IN - OUT =      -7.2479E-05

     PERCENT DISCREPANCY =          -0.00         PERCENT DISCREPANCY =          -0.00






         TIME SUMMARY AT END OF TIME STEP   30 IN STRESS PERIOD    7
                    SECONDS     MINUTES      HOURS       DAYS        YEARS
                    -----------------------------------------------------------
   TIME STEP LENGTH  87667.      1461.1      24.352      1.0147     2.77799E-03
 STRESS PERIOD TIME 2.63000E+06  43833.      730.56      30.440     8.33397E-02
         TOTAL TIME 1.58664E+07 2.64440E+05  4407.3      183.64     0.50278    
1
1
                            STRESS PERIOD NO.    8, LENGTH =   2630000.    
                            -----------------------------------------------

                              NUMBER OF TIME STEPS =    30

                               MULTIPLIER FOR DELT =     1.000

                            INITIAL TIME STEP SIZE =   87666.66    

 REUSING NON-PARAMETER GHB CELLS FROM LAST STRESS PERIOD

      2 GHB CELLS

 REUSING STREAM SEGMENT DATA FROM LAST STRESS PERIOD



            AREAL INFILTRATION RATE
 READING ON UNIT   19 WITH FORMAT: (FREE)              

            1           2           3           4           5           6           7           8           9          10
 ........................................................................................................................
   1   1.0000E-10  2.0000E-10   0.000       0.000       0.000       0.000       0.000       0.000       0.000       0.000    
   2   2.0000E-10  1.0000E-10  2.0000E-10   0.000       0.000      8.0000E-10  8.0000E-10  5.0000E-10   0.000       0.000    
   3    0.000      5.0000E-10  1.0000E-10  1.0000E-10  8.0000E-10  8.0000E-10  5.0000E-10  5.0000E-10   0.000       0.000    
   4   8.0000E-10  5.0000E-10  1.0000E-10  1.0000E-10  1.0000E-10  1.0000E-10  1.0000E-10  1.0000E-10  2.0000E-10   0.000    
   5   8.0000E-10  5.0000E-10  1.0000E-10  1.0000E-10  1.0000E-10  1.0000E-10  1.0000E-10  1.0000E-10  1.0000E-10  1.0000E-10
   6   8.0000E-10  5.0000E-10  5.0000E-10  2.0000E-10  2.0000E-10  1.0000E-10  1.0000E-10  1.0000E-10  1.0000E-10  5.0000E-10
   7   8.0000E-10  5.0000E-10  5.0000E-10  2.0000E-10  2.0000E-10  1.0000E-10  1.0000E-10  2.0000E-10  2.0000E-10   0.000    
   8    0.000      5.0000E-10  5.0000E-10  2.0000E-10  2.0000E-10  1.0000E-10  1.0000E-10  2.0000E-10  5.0000E-10   0.000    
   9    0.000      5.0000E-10  5.0000E-10  2.0000E-10  2.0000E-10  1.0000E-10  1.0000E-10  2.0000E-10  5.0000E-10   0.000    
  10    0.000      5.0000E-10  5.0000E-10  2.0000E-10  2.0000E-10  1.0000E-10  1.0000E-10  2.0000E-10  5.0000E-10  8.0000E-10
  11    0.000      1.0000E-10  1.0000E-10  1.0000E-10  1.0000E-10  1.0000E-10  1.0000E-10  2.0000E-10  5.0000E-10   0.000    
  12   1.0000E-10  1.0000E-10  1.0000E-10  1.0000E-10  1.0000E-10  1.0000E-10  1.0000E-10  1.0000E-10  2.0000E-10   0.000    
  13   1.0000E-10  1.0000E-10  2.0000E-10  2.0000E-10  2.0000E-10  2.0000E-10  2.0000E-10  1.0000E-10  1.0000E-10   0.000    
  14    0.000      2.0000E-10  5.0000E-10  5.0000E-10  5.0000E-10  5.0000E-10  5.0000E-10  2.0000E-10  1.0000E-10   0.000    
  15    0.000       0.000      8.0000E-10  8.0000E-10  8.0000E-10  8.0000E-10   0.000       0.000       0.000       0.000    

                  ET RATE =  4.000000E-07

 USING ET EXTINCTION DEPTH FROM PREVIOUS STRESS PERIOD. CURRENT PERIOD IS:       8

 USING EXTINCTION WATER CONTENT FROM PREVIOUS STRESS PERIOD. CURRENT PERIOD IS:       8

 USING AIR ENTRY PRESSURE FROM PREVIOUS STRESS PERIOD. CURRENT PERIOD IS:       8

 USING ROOT PRESSURE HEAD FROM PREVIOUS STRESS PERIOD. CURRENT PERIOD IS:       8

 USING ROOT ACTIVITY FROM PREVIOUS STRESS PERIOD. CURRENT PERIOD IS:       8

 PROCESSING AG STRESS PERIOD DATA

 READING AG STRESS PERIOD DATA

 READING IRRIGATION SEGMENT

 READING IRRIGATION WELL

 READING SUPPLEMENTAL WELL

 NO IRRPOND OR REUSING IRRPOND DATA FROM LAST STRESS PERIOD

 END PROCESSING AG STRESS PERIOD DATA OPTIONS
 
 SOLVING FOR HEAD 
                                                   Max.-Head-Change                         Max.-Flux-Residual
  Residual-Control   Outer-Iter.   Inner-Iter.     Column Row Layer    Maximum-Head-Change  Column Row Layer    Maximum-Flux-Residual          L2-NORM 
          0                 1           2             4    7     1      -0.1677060227E+00       4    7    1        -0.8769414348E+01      0.2050615398E+02
          0                 2           2             4    7     1       0.1630178632E-01       4    7    1         0.8763240526E+00      0.2049125023E+01
          0                 3           2             4    7     1      -0.1110093931E-02       4    7    1        -0.6134288480E-01      0.1434389582E+00
          0                 4           1             4    7     1       0.4417166381E-04       4    7    1         0.2508926679E-02      0.5866658998E-02

    ------------------------------------------------
       NWT REQUIRED            4 OUTER ITERATIONS 
       AND A TOTAL OF          7 INNER ITERATIONS.
    ------------------------------------------------

 OUTPUT CONTROL FOR STRESS PERIOD    8   TIME STEP    1
    PRINT BUDGET
    SAVE BUDGET
 UBDSV1 SAVING "         STORAGE" ON UNIT 102 AT TIME STEP 1, STRESS PERIOD 8
 UBDSV2 SAVING "   CONSTANT HEAD" ON UNIT 102 AT TIME STEP 1, STRESS PERIOD 8
 UBDSV1 SAVING "FLOW RIGHT FACE " ON UNIT 102 AT TIME STEP 1, STRESS PERIOD 8
 UBDSV1 SAVING "FLOW FRONT FACE " ON UNIT 102 AT TIME STEP 1, STRESS PERIOD 8

  HEAD DEP BOUNDS   PERIOD    8   STEP     1
 BOUNDARY      1   LAYER   1   ROW    13   COL     1   RATE   -0.291181    
 BOUNDARY      2   LAYER   1   ROW    14   COL     9   RATE    0.287948    



 STREAM LISTING     PERIOD      8   STEP        1

 LAYER ROW COL. STREAM  RCH.  FLOW INTO     FLOW TO   FLOW OUT OF   OVRLND.     DIRECT     STREAM       STREAM     STREAM     STREAM   STREAMBED  STREAMBED
                SEG.NO.  NO.  STRM. RCH.    AQUIFER    STRM. RCH.    RUNOFF     PRECIP       ET          HEAD       DEPTH      WIDTH   CONDCTNC.   GRADIENT

   1    1    1     1     1    2.8125E+01  2.5915E-01   2.7866E+01  0.000E+00  0.000E+00  0.000E+00  1.09427E+03  1.223E+00  1.364E+01  6.137E-02  1.408E+00
   1    2    2     1     2    2.7866E+01  4.0087E-01   2.7465E+01  0.000E+00  0.000E+00  0.000E+00  1.08928E+03  1.218E+00  1.358E+01  9.503E-02  1.406E+00
   1    3    3     1     3    2.7465E+01  3.4143E-01   2.7124E+01  0.000E+00  0.000E+00  0.000E+00  1.08363E+03  1.213E+00  1.351E+01  8.104E-02  1.404E+00
   1    3    4     1     4    2.7124E+01  3.1403E-01   2.6810E+01  0.000E+00  0.000E+00  0.000E+00  1.07862E+03  1.209E+00  1.344E+01  7.461E-02  1.403E+00
   1    4    5     2     1    2.4810E+01  3.2739E-01   2.4482E+01  0.000E+00  0.000E+00  0.000E+00  1.07313E+03  1.197E+00  1.200E+01  7.800E-02  1.399E+00
   1    5    6     2     2    2.4482E+01  2.5133E-01   2.4231E+01  0.000E+00  0.000E+00  0.000E+00  1.06770E+03  1.189E+00  1.200E+01  6.000E-02  1.396E+00
   1    6    6     2     3    2.4231E+01  2.5089E-01   2.3980E+01  0.000E+00  0.000E+00  0.000E+00  1.06297E+03  1.181E+00  1.200E+01  6.000E-02  1.394E+00
   1    7    6     2     4    2.3980E+01  2.5044E-01   2.3730E+01  0.000E+00  0.000E+00  0.000E+00  1.05825E+03  1.174E+00  1.200E+01  6.000E-02  1.391E+00
   1    8    6     2     5    2.3730E+01  2.5000E-01   2.3480E+01  0.000E+00  0.000E+00  0.000E+00  1.05353E+03  1.167E+00  1.200E+01  6.000E-02  1.389E+00
   1    3    5     3     1    2.0000E+00  2.8252E-01   1.7175E+00  0.000E+00  0.000E+00  0.000E+00  1.07555E+03  1.909E+00  9.636E+00  7.227E-02  1.955E+00
   1    3    6     3     2    1.7175E+00  2.4905E-01   1.4684E+00  0.000E+00  0.000E+00  0.000E+00  1.07264E+03  1.727E+00  8.909E+00  6.682E-02  1.864E+00
   1    3    7     3     3    1.4684E+00  1.9718E-01   1.2712E+00  0.000E+00  0.000E+00  0.000E+00  1.06987E+03  1.555E+00  8.218E+00  5.547E-02  1.777E+00
   1    4    8     3     4    1.2712E+00  2.2567E-01   1.0456E+00  0.000E+00  0.000E+00  0.000E+00  1.06682E+03  1.364E+00  7.455E+00  6.709E-02  1.682E+00
   1    5    8     3     5    1.0456E+00  1.5790E-01   8.8768E-01  0.000E+00  0.000E+00  0.000E+00  1.06362E+03  1.164E+00  6.655E+00  4.991E-02  1.582E+00
   1    6    8     3     6    8.8768E-01  5.5980E-02   8.3170E-01  0.000E+00  0.000E+00  0.000E+00  1.06158E+03  1.036E+00  6.145E+00  1.844E-02  1.518E+00
   1    5   10     4     1    1.0000E+01  9.0919E-02   9.9091E+00  0.000E+00  0.000E+00  0.000E+00  1.07836E+03  6.368E-01  1.000E+01  2.500E-02  1.212E+00
   1    5    9     4     2    9.9091E+00  1.8158E-01   9.7275E+00  0.000E+00  0.000E+00  0.000E+00  1.07154E+03  6.315E-01  1.000E+01  5.000E-02  1.211E+00
   1    6    8     4     3    9.7275E+00  1.2689E-01   9.6006E+00  0.000E+00  0.000E+00  0.000E+00  1.06381E+03  6.256E-01  1.000E+01  3.500E-02  1.209E+00
   1    6    8     5     1    1.0432E+01  2.2686E-01   1.0205E+01  0.000E+00  0.000E+00  0.000E+00  1.05868E+03  6.790E-01  1.542E+01  6.166E-02  1.226E+00
   1    7    7     5     2    1.0205E+01  2.7894E-01   9.9265E+00  0.000E+00  0.000E+00  0.000E+00  1.05417E+03  6.732E-01  1.519E+01  7.594E-02  1.224E+00
   1    8    7     5     3    9.9265E+00  1.9221E-01   9.7343E+00  0.000E+00  0.000E+00  0.000E+00  1.04992E+03  6.676E-01  1.497E+01  5.241E-02  1.223E+00
   1    8    6     5     4    9.7343E+00  1.3577E-01   9.5985E+00  0.000E+00  0.000E+00  0.000E+00  1.04691E+03  6.637E-01  1.482E+01  3.706E-02  1.221E+00
   1    9    6     6     1    3.3078E+01  2.6646E-01   3.2812E+01  0.000E+00  0.000E+00  0.000E+00  1.04417E+03  1.441E+00  1.200E+01  6.000E-02  1.480E+00
   1   10    7     6     2    3.2812E+01  2.6604E-01   3.2546E+01  0.000E+00  0.000E+00  0.000E+00  1.03962E+03  1.434E+00  1.200E+01  6.000E-02  1.478E+00
   1   11    7     6     3    3.2546E+01  2.6562E-01   3.2280E+01  0.000E+00  0.000E+00  0.000E+00  1.03506E+03  1.427E+00  1.200E+01  6.000E-02  1.476E+00
   1   12    7     6     4    3.2280E+01  2.6519E-01   3.2015E+01  0.000E+00  0.000E+00  0.000E+00  1.03051E+03  1.420E+00  1.200E+01  6.000E-02  1.473E+00
   1   13    7     6     5    3.2015E+01  1.0642E-02   3.2004E+01  0.000E+00  0.000E+00  0.000E+00  1.02733E+03  1.416E+00  1.200E+01  2.400E-02  1.478E-01
   1   14    9     7     1    1.5000E+02  1.3680E+00   1.4863E+02  0.000E+00  0.000E+00  0.000E+00  1.03987E+03  2.288E+00  5.529E+01  5.593E-01  8.153E-01
   1   13    8     7     2    1.4863E+02  1.9125E+00   1.4672E+02  0.000E+00  0.000E+00  0.000E+00  1.03478E+03  2.279E+00  5.526E+01  6.148E-01  1.037E+00
   1   13    7     7     3    1.4672E+02  1.5675E+00   1.4515E+02  0.000E+00  0.000E+00  0.000E+00  1.02969E+03  2.270E+00  5.521E+01  5.584E-01  9.357E-01
   1   13    6     8     1    1.7716E+02  1.0301E+00   1.7613E+02  0.000E+00  0.000E+00  0.000E+00  1.02487E+03  2.995E+00  4.343E+01  4.425E-01  7.759E-01
   1   13    5     8     2    1.7613E+02  2.5197E-01   1.7587E+02  0.000E+00  0.000E+00  0.000E+00  1.01862E+03  2.991E+00  4.337E+01  4.419E-01  1.901E-01
   1   13    4     8     3    1.7587E+02 -2.2686E+00   1.7814E+02  0.000E+00  0.000E+00  0.000E+00  1.01237E+03  2.997E+00  4.346E+01  4.429E+00 -1.707E-01
   1   13    3     8     4    1.7814E+02 -3.5844E+00   1.8173E+02  0.000E+00  0.000E+00  0.000E+00  1.00614E+03  3.016E+00  4.373E+01  4.456E+00 -2.681E-01
   1   13    2     8     5    1.8173E+02 -2.5891E+00   1.8432E+02  0.000E+00  0.000E+00  0.000E+00  9.99910E+02  3.035E+00  4.401E+01  4.485E+00 -1.924E-01
   1   13    1     8     6    1.8432E+02 -1.9962E+00   1.8631E+02  0.000E+00  0.000E+00  0.000E+00  9.94924E+02  3.049E+00  4.421E+01  2.703E+00 -2.461E-01
   1    8    6     9     1    0.0000E+00  0.0000E+00   0.0000E+00  0.000E+00  0.000E+00  0.000E+00  1.07875E+03  0.000E+00  4.000E+00  0.000E+00  1.000E+00
   1    8    5     9     2    0.0000E+00  0.0000E+00   0.0000E+00  0.000E+00  0.000E+00  0.000E+00  1.07825E+03  0.000E+00  4.000E+00  0.000E+00  1.000E+00



 UBDSV3 SAVING "           GW ET" ON UNIT  61 AT TIME STEP 1, STRESS PERIOD 8
 UBDSV3 SAVING "    UZF RECHARGE" ON UNIT  61 AT TIME STEP 1, STRESS PERIOD 8
 UBDSV3 SAVING " SURFACE LEAKAGE" ON UNIT  61 AT TIME STEP 1, STRESS PERIOD 8
 UBDSV3 SAVING "       HORT+DUNN" ON UNIT  61 AT TIME STEP 1, STRESS PERIOD 8
 UBDSV3 SAVING "  STORAGE CHANGE" ON UNIT  61 AT TIME STEP 1, STRESS PERIOD 8


UNSATURATED ZONE PACKAGE VOLUMETRIC BUDGET FOR  TIME STEP     1 STRESS PERIOD    8
  ------------------------------------------------------------------------------



     CUMULATIVE VOLUMES      L**3       RATES FOR THIS TIME STEP      L**3/T
     ------------------                 ------------------------

           IN:                                      IN:
           ---                                      ---
        INFILTRATION =   107304788.8605          INFILTRATION =          60.8211

          OUT:                                     OUT:
          ----                                     ----
              UZF ET =   107147205.4967                UZF ET =          60.8175
        UZF RECHARGE =       73224.0000          UZF RECHARGE =       0.0000E+00

            IN - OUT =       84359.3638              IN - OUT =       3.5992E-03

          STORAGE:                                 STORAGE:
          --------                                 --------
      STORAGE CHANGE =       84359.1880        STORAGE CHANGE =       3.5939E-03

 PERCENT DISCREPANCY IS DIFFERENCE BETWEEN IN-OUT MINUS CHANGE IN STORAGE
 DIVIDED BY THE AVERAGE OF IN AND OUT TIMES 100

 PERCENT DISCREPANCY =           0.00     PERCENT DISCREPANCY =           0.00






 

            AG WELLS      PERIOD    8   STEP   1
 AG WELL      1   LAYER   1   ROW     6   COL     4   RATE    -9.99560    
 AG WELL      2   LAYER   1   ROW     6   COL     5   RATE    -9.99560    
 AG WELL      3   LAYER   1   ROW     7   COL     4   RATE    -9.99560    
 AG WELL      4   LAYER   1   ROW     7   COL     5   RATE    -9.99560    
 AG WELL      5   LAYER   1   ROW     8   COL     4   RATE    -9.99560    
 AG WELL      6   LAYER   1   ROW     8   COL     5   RATE    -9.99560    
 
 

   DIVERSION SEGMENTS     PERIOD    8   STEP   1
 SEGMENT      9   RATE     0.00000    
 
 

        SW IRRIGATION     PERIOD    8   STEP   1
 SEGMENT      9   ROW     6   COL     4   RATE     0.00000    
 SEGMENT      9   ROW     6   COL     5   RATE     0.00000    
 SEGMENT      9   ROW     7   COL     4   RATE     0.00000    
 SEGMENT      9   ROW     7   COL     5   RATE     0.00000    
 SEGMENT      9   ROW     8   COL     4   RATE     0.00000    
 SEGMENT      9   ROW     8   COL     5   RATE     0.00000    
 
 

        GW IRRIGATION     PERIOD    8   STEP   1
 AG WELL      1   ROW     6   COL     4   RATE     9.99560    
 AG WELL      2   ROW     6   COL     5   RATE     9.99560    
 AG WELL      3   ROW     7   COL     4   RATE     9.99560    
 AG WELL      4   ROW     7   COL     5   RATE     9.99560    
 AG WELL      5   ROW     8   COL     4   RATE     9.99560    
 AG WELL      6   ROW     8   COL     5   RATE     9.99560    
 
1
  VOLUMETRIC BUDGET FOR AGRICULTURAL FIELDS AT  END OF TIME STEP    1, STRESS PERIOD   8
  ------------------------------------------------------------------------------

     CUMULATIVE VOLUMES      L**3       RATES FOR THIS TIME STEP      L**3/T
     ------------------                 ------------------------

           IN:                                      IN:
           ---                                      ---
               AG WELLS  =    93783776.0000                 AG WELLS  =          59.9736
      DIVERSION SEGMENTS =           0.0000        DIVERSION SEGMENTS =           0.0000
       IRRIGATION PONDS  =           0.0000         IRRIGATION PONDS  =           0.0000
           GW IRRIGATION =           0.0000             GW IRRIGATION =           0.0000
           SW IRRIGATION =           0.0000             SW IRRIGATION =           0.0000
        SYSTEM LOSSES GW =           0.0000          SYSTEM LOSSES GW =           0.0000
        SYSTEM LOSSES SW =           0.0000          SYSTEM LOSSES SW =           0.0000

                TOTAL IN =    93783776.0000                  TOTAL IN =          59.9736

          OUT:                                     OUT:
          ----                                     ----
               AG WELLS  =           0.0000                 AG WELLS  =           0.0000
      DIVERSION SEGMENTS =           0.0000        DIVERSION SEGMENTS =           0.0000
       IRRIGATION PONDS  =           0.0000         IRRIGATION PONDS  =           0.0000
           GW IRRIGATION =    93783776.0000             GW IRRIGATION =          59.9736
           SW IRRIGATION =           0.0000             SW IRRIGATION =           0.0000
        SYSTEM LOSSES GW =           0.0000          SYSTEM LOSSES GW =           0.0000
        SYSTEM LOSSES SW =           0.0000          SYSTEM LOSSES SW =           0.0000

               TOTAL OUT =    93783776.0000                 TOTAL OUT =          59.9736

                IN - OUT =           0.0000                  IN - OUT =           0.0000

     PERCENT DISCREPANCY =           0.00         PERCENT DISCREPANCY =           0.00



1
  VOLUMETRIC BUDGET FOR ENTIRE MODEL AT END OF TIME STEP    1, STRESS PERIOD   8
  ------------------------------------------------------------------------------

     CUMULATIVE VOLUMES      L**3       RATES FOR THIS TIME STEP      L**3/T
     ------------------                 ------------------------

           IN:                                      IN:
           ---                                      ---
             STORAGE     =    94553448.0000               STORAGE     =          59.0287
       CONSTANT HEAD     =           0.0000         CONSTANT HEAD     =           0.0000
     HEAD DEP BOUNDS     =     4592704.0000       HEAD DEP BOUNDS     =           0.2879
      STREAM LEAKAGE     =   190293744.0000        STREAM LEAKAGE     =          12.2510
        UZF RECHARGE     =       73223.9531          UZF RECHARGE     =           0.0000
               GW ET     =           0.0000                 GW ET     =           0.0000
     SURFACE LEAKAGE     =           0.0000       SURFACE LEAKAGE     =           0.0000
           AG WELLS      =           0.0000             AG WELLS      =           0.0000

                TOTAL IN =   289513120.0000                  TOTAL IN =          71.5676

          OUT:                                     OUT:
          ----                                     ----
             STORAGE     =    29468040.0000               STORAGE     =           0.8648
       CONSTANT HEAD     =           0.0000         CONSTANT HEAD     =           0.0000
     HEAD DEP BOUNDS     =     4612909.5000       HEAD DEP BOUNDS     =           0.2912
      STREAM LEAKAGE     =   161650048.0000        STREAM LEAKAGE     =          10.4382
        UZF RECHARGE     =           0.0000          UZF RECHARGE     =           0.0000
               GW ET     =           0.0000                 GW ET     =           0.0000
     SURFACE LEAKAGE     =           0.0000       SURFACE LEAKAGE     =           0.0000
           AG WELLS      =    93783776.0000             AG WELLS      =          59.9736

               TOTAL OUT =   289514752.0000                 TOTAL OUT =          71.5678

                IN - OUT =       -1632.0000                  IN - OUT =      -2.0599E-04

     PERCENT DISCREPANCY =          -0.00         PERCENT DISCREPANCY =          -0.00






         TIME SUMMARY AT END OF TIME STEP    1 IN STRESS PERIOD    8
                    SECONDS     MINUTES      HOURS       DAYS        YEARS
                    -----------------------------------------------------------
   TIME STEP LENGTH  87667.      1461.1      24.352      1.0147     2.77799E-03
 STRESS PERIOD TIME  87667.      1461.1      24.352      1.0147     2.77799E-03
         TOTAL TIME 1.59541E+07 2.65901E+05  4431.7      184.65     0.50555    
1
 
 SOLVING FOR HEAD 
                                                   Max.-Head-Change                         Max.-Flux-Residual
  Residual-Control   Outer-Iter.   Inner-Iter.     Column Row Layer    Maximum-Head-Change  Column Row Layer    Maximum-Flux-Residual          L2-NORM 
          0                 1           2             4    7     1      -0.1665878593E+00       4    7    1        -0.8713787724E+01      0.2019631095E+02
          0                 2           2             4    7     1       0.1620416185E-01       4    7    1         0.8713592085E+00      0.2019598959E+01
          0                 3           2             4    7     1      -0.1103446227E-02       4    7    1        -0.6099535605E-01      0.1413721555E+00
          0                 4           1             4    7     1       0.4390714468E-04       4    7    1         0.2494712678E-02      0.5782117954E-02

    ------------------------------------------------
       NWT REQUIRED            4 OUTER ITERATIONS 
       AND A TOTAL OF          7 INNER ITERATIONS.
    ------------------------------------------------

 NO OUTPUT CONTROL FOR STRESS PERIOD    8   TIME STEP    2
 
 SOLVING FOR HEAD 
                                                   Max.-Head-Change                         Max.-Flux-Residual
  Residual-Control   Outer-Iter.   Inner-Iter.     Column Row Layer    Maximum-Head-Change  Column Row Layer    Maximum-Flux-Residual          L2-NORM 
          0                 1           2             4    7     1      -0.1654266261E+00       4    7    1        -0.8655678117E+01      0.1990083505E+02
          0                 2           2             4    7     1       0.1609119148E-01       4    7    1         0.8655472919E+00      0.1990051481E+01
          0                 3           2             4    7     1      -0.1095753500E-02       4    7    1        -0.6058853076E-01      0.1393038369E+00
          0                 4           1             4    7     1       0.4360104330E-04       4    7    1         0.2478073458E-02      0.5697523194E-02

    ------------------------------------------------
       NWT REQUIRED            4 OUTER ITERATIONS 
       AND A TOTAL OF          7 INNER ITERATIONS.
    ------------------------------------------------

 NO OUTPUT CONTROL FOR STRESS PERIOD    8   TIME STEP    3
 
 SOLVING FOR HEAD 
                                                   Max.-Head-Change                         Max.-Flux-Residual
  Residual-Control   Outer-Iter.   Inner-Iter.     Column Row Layer    Maximum-Head-Change  Column Row Layer    Maximum-Flux-Residual          L2-NORM 
          0                 1           2             4    7     1      -0.1642269094E+00       4    7    1        -0.8595338611E+01      0.1961863260E+02
          0                 2           2             4    7     1       0.1597447955E-01       4    7    1         0.8595125087E+00      0.1961831422E+01
          0                 3           2             4    7     1      -0.1087805970E-02       4    7    1        -0.6016610363E-01      0.1373284613E+00
          0                 4           1             4    7     1       0.4328480298E-04       4    7    1         0.2460796130E-02      0.5616726038E-02

    ------------------------------------------------
       NWT REQUIRED            4 OUTER ITERATIONS 
       AND A TOTAL OF          7 INNER ITERATIONS.
    ------------------------------------------------

 NO OUTPUT CONTROL FOR STRESS PERIOD    8   TIME STEP    4
 
 SOLVING FOR HEAD 
                                                   Max.-Head-Change                         Max.-Flux-Residual
  Residual-Control   Outer-Iter.   Inner-Iter.     Column Row Layer    Maximum-Head-Change  Column Row Layer    Maximum-Flux-Residual          L2-NORM 
          0                 1           2             4    7     1      -0.1629928382E+00       4    7    1        -0.8532996466E+01      0.1934875454E+02
          0                 2           2             4    7     1       0.1585442755E-01       4    7    1         0.8532775756E+00      0.1934843873E+01
          0                 3           2             4    7     1      -0.1079630977E-02       4    7    1        -0.5972966491E-01      0.1354393377E+00
          0                 4           1             4    7     1       0.4295951167E-04       4    7    1         0.2442945720E-02      0.5539468828E-02

    ------------------------------------------------
       NWT REQUIRED            4 OUTER ITERATIONS 
       AND A TOTAL OF          7 INNER ITERATIONS.
    ------------------------------------------------

 OUTPUT CONTROL FOR STRESS PERIOD    8   TIME STEP    5
    PRINT BUDGET
    SAVE BUDGET
 UBDSV1 SAVING "         STORAGE" ON UNIT 102 AT TIME STEP 5, STRESS PERIOD 8
 UBDSV2 SAVING "   CONSTANT HEAD" ON UNIT 102 AT TIME STEP 5, STRESS PERIOD 8
 UBDSV1 SAVING "FLOW RIGHT FACE " ON UNIT 102 AT TIME STEP 5, STRESS PERIOD 8
 UBDSV1 SAVING "FLOW FRONT FACE " ON UNIT 102 AT TIME STEP 5, STRESS PERIOD 8

  HEAD DEP BOUNDS   PERIOD    8   STEP     5
 BOUNDARY      1   LAYER   1   ROW    13   COL     1   RATE   -0.291099    
 BOUNDARY      2   LAYER   1   ROW    14   COL     9   RATE    0.287949    



 STREAM LISTING     PERIOD      8   STEP        5

 LAYER ROW COL. STREAM  RCH.  FLOW INTO     FLOW TO   FLOW OUT OF   OVRLND.     DIRECT     STREAM       STREAM     STREAM     STREAM   STREAMBED  STREAMBED
                SEG.NO.  NO.  STRM. RCH.    AQUIFER    STRM. RCH.    RUNOFF     PRECIP       ET          HEAD       DEPTH      WIDTH   CONDCTNC.   GRADIENT

   1    1    1     1     1    2.8125E+01  2.5915E-01   2.7866E+01  0.000E+00  0.000E+00  0.000E+00  1.09427E+03  1.223E+00  1.364E+01  6.137E-02  1.408E+00
   1    2    2     1     2    2.7866E+01  4.0087E-01   2.7465E+01  0.000E+00  0.000E+00  0.000E+00  1.08928E+03  1.218E+00  1.358E+01  9.503E-02  1.406E+00
   1    3    3     1     3    2.7465E+01  3.4143E-01   2.7124E+01  0.000E+00  0.000E+00  0.000E+00  1.08363E+03  1.213E+00  1.351E+01  8.104E-02  1.404E+00
   1    3    4     1     4    2.7124E+01  3.1403E-01   2.6810E+01  0.000E+00  0.000E+00  0.000E+00  1.07862E+03  1.209E+00  1.344E+01  7.461E-02  1.403E+00
   1    4    5     2     1    2.4810E+01  3.2739E-01   2.4482E+01  0.000E+00  0.000E+00  0.000E+00  1.07313E+03  1.197E+00  1.200E+01  7.800E-02  1.399E+00
   1    5    6     2     2    2.4482E+01  2.5133E-01   2.4231E+01  0.000E+00  0.000E+00  0.000E+00  1.06770E+03  1.189E+00  1.200E+01  6.000E-02  1.396E+00
   1    6    6     2     3    2.4231E+01  2.5089E-01   2.3980E+01  0.000E+00  0.000E+00  0.000E+00  1.06297E+03  1.181E+00  1.200E+01  6.000E-02  1.394E+00
   1    7    6     2     4    2.3980E+01  2.5044E-01   2.3730E+01  0.000E+00  0.000E+00  0.000E+00  1.05825E+03  1.174E+00  1.200E+01  6.000E-02  1.391E+00
   1    8    6     2     5    2.3730E+01  2.5000E-01   2.3480E+01  0.000E+00  0.000E+00  0.000E+00  1.05353E+03  1.167E+00  1.200E+01  6.000E-02  1.389E+00
   1    3    5     3     1    2.0000E+00  2.8252E-01   1.7175E+00  0.000E+00  0.000E+00  0.000E+00  1.07555E+03  1.909E+00  9.636E+00  7.227E-02  1.955E+00
   1    3    6     3     2    1.7175E+00  2.4905E-01   1.4684E+00  0.000E+00  0.000E+00  0.000E+00  1.07264E+03  1.727E+00  8.909E+00  6.682E-02  1.864E+00
   1    3    7     3     3    1.4684E+00  1.9718E-01   1.2712E+00  0.000E+00  0.000E+00  0.000E+00  1.06987E+03  1.555E+00  8.218E+00  5.547E-02  1.777E+00
   1    4    8     3     4    1.2712E+00  2.2567E-01   1.0456E+00  0.000E+00  0.000E+00  0.000E+00  1.06682E+03  1.364E+00  7.455E+00  6.709E-02  1.682E+00
   1    5    8     3     5    1.0456E+00  1.5790E-01   8.8768E-01  0.000E+00  0.000E+00  0.000E+00  1.06362E+03  1.164E+00  6.655E+00  4.991E-02  1.582E+00
   1    6    8     3     6    8.8768E-01  5.5980E-02   8.3170E-01  0.000E+00  0.000E+00  0.000E+00  1.06158E+03  1.036E+00  6.145E+00  1.844E-02  1.518E+00
   1    5   10     4     1    1.0000E+01  9.0919E-02   9.9091E+00  0.000E+00  0.000E+00  0.000E+00  1.07836E+03  6.368E-01  1.000E+01  2.500E-02  1.212E+00
   1    5    9     4     2    9.9091E+00  1.8158E-01   9.7275E+00  0.000E+00  0.000E+00  0.000E+00  1.07154E+03  6.315E-01  1.000E+01  5.000E-02  1.211E+00
   1    6    8     4     3    9.7275E+00  1.2689E-01   9.6006E+00  0.000E+00  0.000E+00  0.000E+00  1.06381E+03  6.256E-01  1.000E+01  3.500E-02  1.209E+00
   1    6    8     5     1    1.0432E+01  2.2686E-01   1.0205E+01  0.000E+00  0.000E+00  0.000E+00  1.05868E+03  6.790E-01  1.542E+01  6.166E-02  1.226E+00
   1    7    7     5     2    1.0205E+01  2.7894E-01   9.9265E+00  0.000E+00  0.000E+00  0.000E+00  1.05417E+03  6.732E-01  1.519E+01  7.594E-02  1.224E+00
   1    8    7     5     3    9.9265E+00  1.9221E-01   9.7343E+00  0.000E+00  0.000E+00  0.000E+00  1.04992E+03  6.676E-01  1.497E+01  5.241E-02  1.223E+00
   1    8    6     5     4    9.7343E+00  1.3577E-01   9.5985E+00  0.000E+00  0.000E+00  0.000E+00  1.04691E+03  6.637E-01  1.482E+01  3.706E-02  1.221E+00
   1    9    6     6     1    3.3078E+01  2.6646E-01   3.2812E+01  0.000E+00  0.000E+00  0.000E+00  1.04417E+03  1.441E+00  1.200E+01  6.000E-02  1.480E+00
   1   10    7     6     2    3.2812E+01  2.6604E-01   3.2546E+01  0.000E+00  0.000E+00  0.000E+00  1.03962E+03  1.434E+00  1.200E+01  6.000E-02  1.478E+00
   1   11    7     6     3    3.2546E+01  2.6562E-01   3.2280E+01  0.000E+00  0.000E+00  0.000E+00  1.03506E+03  1.427E+00  1.200E+01  6.000E-02  1.476E+00
   1   12    7     6     4    3.2280E+01  2.6519E-01   3.2015E+01  0.000E+00  0.000E+00  0.000E+00  1.03051E+03  1.420E+00  1.200E+01  6.000E-02  1.473E+00
   1   13    7     6     5    3.2015E+01  1.0621E-02   3.2004E+01  0.000E+00  0.000E+00  0.000E+00  1.02733E+03  1.416E+00  1.200E+01  2.400E-02  1.475E-01
   1   14    9     7     1    1.5000E+02  1.3680E+00   1.4863E+02  0.000E+00  0.000E+00  0.000E+00  1.03987E+03  2.288E+00  5.529E+01  5.593E-01  8.153E-01
   1   13    8     7     2    1.4863E+02  1.9123E+00   1.4672E+02  0.000E+00  0.000E+00  0.000E+00  1.03478E+03  2.279E+00  5.526E+01  6.148E-01  1.037E+00
   1   13    7     7     3    1.4672E+02  1.5670E+00   1.4515E+02  0.000E+00  0.000E+00  0.000E+00  1.02969E+03  2.270E+00  5.521E+01  5.584E-01  9.354E-01
   1   13    6     8     1    1.7716E+02  1.0300E+00   1.7613E+02  0.000E+00  0.000E+00  0.000E+00  1.02487E+03  2.995E+00  4.343E+01  4.425E-01  7.759E-01
   1   13    5     8     2    1.7613E+02  2.5193E-01   1.7587E+02  0.000E+00  0.000E+00  0.000E+00  1.01862E+03  2.991E+00  4.337E+01  4.419E-01  1.900E-01
   1   13    4     8     3    1.7587E+02 -2.2550E+00   1.7813E+02  0.000E+00  0.000E+00  0.000E+00  1.01237E+03  2.997E+00  4.346E+01  4.429E+00 -1.697E-01
   1   13    3     8     4    1.7813E+02 -3.5716E+00   1.8170E+02  0.000E+00  0.000E+00  0.000E+00  1.00614E+03  3.016E+00  4.373E+01  4.456E+00 -2.672E-01
   1   13    2     8     5    1.8170E+02 -2.5746E+00   1.8428E+02  0.000E+00  0.000E+00  0.000E+00  9.99910E+02  3.035E+00  4.401E+01  4.484E+00 -1.914E-01
   1   13    1     8     6    1.8428E+02 -1.9909E+00   1.8627E+02  0.000E+00  0.000E+00  0.000E+00  9.94924E+02  3.049E+00  4.421E+01  2.703E+00 -2.455E-01
   1    8    6     9     1    0.0000E+00  0.0000E+00   0.0000E+00  0.000E+00  0.000E+00  0.000E+00  1.07875E+03  0.000E+00  4.000E+00  0.000E+00  1.000E+00
   1    8    5     9     2    0.0000E+00  0.0000E+00   0.0000E+00  0.000E+00  0.000E+00  0.000E+00  1.07825E+03  0.000E+00  4.000E+00  0.000E+00  1.000E+00



 UBDSV3 SAVING "           GW ET" ON UNIT  61 AT TIME STEP 5, STRESS PERIOD 8
 UBDSV3 SAVING "    UZF RECHARGE" ON UNIT  61 AT TIME STEP 5, STRESS PERIOD 8
 UBDSV3 SAVING " SURFACE LEAKAGE" ON UNIT  61 AT TIME STEP 5, STRESS PERIOD 8
 UBDSV3 SAVING "       HORT+DUNN" ON UNIT  61 AT TIME STEP 5, STRESS PERIOD 8
 UBDSV3 SAVING "  STORAGE CHANGE" ON UNIT  61 AT TIME STEP 5, STRESS PERIOD 8


UNSATURATED ZONE PACKAGE VOLUMETRIC BUDGET FOR  TIME STEP     5 STRESS PERIOD    8
  ------------------------------------------------------------------------------



     CUMULATIVE VOLUMES      L**3       RATES FOR THIS TIME STEP      L**3/T
     ------------------                 ------------------------

           IN:                                      IN:
           ---                                      ---
        INFILTRATION =   128631457.8440          INFILTRATION =          60.8175

          OUT:                                     OUT:
          ----                                     ----
              UZF ET =   128473874.4802                UZF ET =          60.8175
        UZF RECHARGE =       73224.0000          UZF RECHARGE =       0.0000E+00

            IN - OUT =       84359.3638              IN - OUT =       0.0000E+00

          STORAGE:                                 STORAGE:
          --------                                 --------
      STORAGE CHANGE =       84359.1881        STORAGE CHANGE =      -4.1498E-17

 PERCENT DISCREPANCY IS DIFFERENCE BETWEEN IN-OUT MINUS CHANGE IN STORAGE
 DIVIDED BY THE AVERAGE OF IN AND OUT TIMES 100

 PERCENT DISCREPANCY =           0.00     PERCENT DISCREPANCY =           0.00






 

            AG WELLS      PERIOD    8   STEP   5
 AG WELL      1   LAYER   1   ROW     6   COL     4   RATE    -9.99500    
 AG WELL      2   LAYER   1   ROW     6   COL     5   RATE    -9.99500    
 AG WELL      3   LAYER   1   ROW     7   COL     4   RATE    -9.99500    
 AG WELL      4   LAYER   1   ROW     7   COL     5   RATE    -9.99500    
 AG WELL      5   LAYER   1   ROW     8   COL     4   RATE    -9.99500    
 AG WELL      6   LAYER   1   ROW     8   COL     5   RATE    -9.99500    
 
 

   DIVERSION SEGMENTS     PERIOD    8   STEP   5
 SEGMENT      9   RATE     0.00000    
 
 

        SW IRRIGATION     PERIOD    8   STEP   5
 SEGMENT      9   ROW     6   COL     4   RATE     0.00000    
 SEGMENT      9   ROW     6   COL     5   RATE     0.00000    
 SEGMENT      9   ROW     7   COL     4   RATE     0.00000    
 SEGMENT      9   ROW     7   COL     5   RATE     0.00000    
 SEGMENT      9   ROW     8   COL     4   RATE     0.00000    
 SEGMENT      9   ROW     8   COL     5   RATE     0.00000    
 
 

        GW IRRIGATION     PERIOD    8   STEP   5
 AG WELL      1   ROW     6   COL     4   RATE     9.99500    
 AG WELL      2   ROW     6   COL     5   RATE     9.99500    
 AG WELL      3   ROW     7   COL     4   RATE     9.99500    
 AG WELL      4   ROW     7   COL     5   RATE     9.99500    
 AG WELL      5   ROW     8   COL     4   RATE     9.99500    
 AG WELL      6   ROW     8   COL     5   RATE     9.99500    
 
1
  VOLUMETRIC BUDGET FOR AGRICULTURAL FIELDS AT  END OF TIME STEP    5, STRESS PERIOD   8
  ------------------------------------------------------------------------------

     CUMULATIVE VOLUMES      L**3       RATES FOR THIS TIME STEP      L**3/T
     ------------------                 ------------------------

           IN:                                      IN:
           ---                                      ---
               AG WELLS  =   114813248.0000                 AG WELLS  =          59.9700
      DIVERSION SEGMENTS =           0.0000        DIVERSION SEGMENTS =           0.0000
       IRRIGATION PONDS  =           0.0000         IRRIGATION PONDS  =           0.0000
           GW IRRIGATION =           0.0000             GW IRRIGATION =           0.0000
           SW IRRIGATION =           0.0000             SW IRRIGATION =           0.0000
        SYSTEM LOSSES GW =           0.0000          SYSTEM LOSSES GW =           0.0000
        SYSTEM LOSSES SW =           0.0000          SYSTEM LOSSES SW =           0.0000

                TOTAL IN =   114813248.0000                  TOTAL IN =          59.9700

          OUT:                                     OUT:
          ----                                     ----
               AG WELLS  =           0.0000                 AG WELLS  =           0.0000
      DIVERSION SEGMENTS =           0.0000        DIVERSION SEGMENTS =           0.0000
       IRRIGATION PONDS  =           0.0000         IRRIGATION PONDS  =           0.0000
           GW IRRIGATION =   114813248.0000             GW IRRIGATION =          59.9700
           SW IRRIGATION =           0.0000             SW IRRIGATION =           0.0000
        SYSTEM LOSSES GW =           0.0000          SYSTEM LOSSES GW =           0.0000
        SYSTEM LOSSES SW =           0.0000          SYSTEM LOSSES SW =           0.0000

               TOTAL OUT =   114813248.0000                 TOTAL OUT =          59.9700

                IN - OUT =           0.0000                  IN - OUT =           0.0000

     PERCENT DISCREPANCY =           0.00         PERCENT DISCREPANCY =           0.00



1
  VOLUMETRIC BUDGET FOR ENTIRE MODEL AT END OF TIME STEP    5, STRESS PERIOD   8
  ------------------------------------------------------------------------------

     CUMULATIVE VOLUMES      L**3       RATES FOR THIS TIME STEP      L**3/T
     ------------------                 ------------------------

           IN:                                      IN:
           ---                                      ---
             STORAGE     =   115231360.0000               STORAGE     =          58.9349
       CONSTANT HEAD     =           0.0000         CONSTANT HEAD     =           0.0000
     HEAD DEP BOUNDS     =     4693678.0000       HEAD DEP BOUNDS     =           0.2879
      STREAM LEAKAGE     =   194589568.0000        STREAM LEAKAGE     =          12.2501
        UZF RECHARGE     =       73223.9531          UZF RECHARGE     =           0.0000
               GW ET     =           0.0000                 GW ET     =           0.0000
     SURFACE LEAKAGE     =           0.0000       SURFACE LEAKAGE     =           0.0000
           AG WELLS      =           0.0000             AG WELLS      =           0.0000

                TOTAL IN =   314587840.0000                  TOTAL IN =          71.4730

          OUT:                                     OUT:
          ----                                     ----
             STORAGE     =    29761446.0000               STORAGE     =           0.8200
       CONSTANT HEAD     =           0.0000         CONSTANT HEAD     =           0.0000
     HEAD DEP BOUNDS     =     4714998.5000       HEAD DEP BOUNDS     =           0.2911
      STREAM LEAKAGE     =   165299872.0000        STREAM LEAKAGE     =          10.3921
        UZF RECHARGE     =           0.0000          UZF RECHARGE     =           0.0000
               GW ET     =           0.0000                 GW ET     =           0.0000
     SURFACE LEAKAGE     =           0.0000       SURFACE LEAKAGE     =           0.0000
           AG WELLS      =   114813248.0000             AG WELLS      =          59.9700

               TOTAL OUT =   314589568.0000                 TOTAL OUT =          71.4732

                IN - OUT =       -1728.0000                  IN - OUT =      -2.0599E-04

     PERCENT DISCREPANCY =          -0.00         PERCENT DISCREPANCY =          -0.00






         TIME SUMMARY AT END OF TIME STEP    5 IN STRESS PERIOD    8
                    SECONDS     MINUTES      HOURS       DAYS        YEARS
                    -----------------------------------------------------------
   TIME STEP LENGTH  87667.      1461.1      24.352      1.0147     2.77799E-03
 STRESS PERIOD TIME 4.38333E+05  7305.6      121.76      5.0733     1.38899E-02
         TOTAL TIME 1.63048E+07 2.71746E+05  4529.1      188.71     0.51667    
1
 
 SOLVING FOR HEAD 
                                                   Max.-Head-Change                         Max.-Flux-Residual
  Residual-Control   Outer-Iter.   Inner-Iter.     Column Row Layer    Maximum-Head-Change  Column Row Layer    Maximum-Flux-Residual          L2-NORM 
          0                 1           2             4    7     1      -0.1617284223E+00       4    7    1        -0.8468873111E+01      0.1909033401E+02
          0                 2           2             4    7     1       0.1573142541E-01       4    7    1         0.8468646269E+00      0.1909002119E+01
          0                 3           2             4    7     1      -0.1071255075E-02       4    7    1        -0.5928076413E-01      0.1336304327E+00
          0                 4           1             4    7     1       0.4262622659E-04       4    7    1         0.2424585649E-02      0.5465486320E-02

    ------------------------------------------------
       NWT REQUIRED            4 OUTER ITERATIONS 
       AND A TOTAL OF          7 INNER ITERATIONS.
    ------------------------------------------------

 NO OUTPUT CONTROL FOR STRESS PERIOD    8   TIME STEP    6
 
 SOLVING FOR HEAD 
                                                   Max.-Head-Change                         Max.-Flux-Residual
  Residual-Control   Outer-Iter.   Inner-Iter.     Column Row Layer    Maximum-Head-Change  Column Row Layer    Maximum-Flux-Residual          L2-NORM 
          0                 1           2             4    7     1      -0.1604371525E+00       4    7    1        -0.8403161811E+01      0.1884257362E+02
          0                 2           2             4    7     1       0.1560581257E-01       4    7    1         0.8402929811E+00      0.1884226425E+01
          0                 3           2             4    7     1      -0.1062701379E-02       4    7    1        -0.5882075360E-01      0.1318961289E+00
          0                 4           1             4    7     1       0.4228586658E-04       4    7    1         0.2405771156E-02      0.5394548658E-02

    ------------------------------------------------
       NWT REQUIRED            4 OUTER ITERATIONS 
       AND A TOTAL OF          7 INNER ITERATIONS.
    ------------------------------------------------

 NO OUTPUT CONTROL FOR STRESS PERIOD    8   TIME STEP    7
 
 SOLVING FOR HEAD 
                                                   Max.-Head-Change                         Max.-Flux-Residual
  Residual-Control   Outer-Iter.   Inner-Iter.     Column Row Layer    Maximum-Head-Change  Column Row Layer    Maximum-Flux-Residual          L2-NORM 
          0                 1           2             4    7     1      -0.1591228296E+00       4    7    1        -0.8336072877E+01      0.1860475516E+02
          0                 2           2             4    7     1       0.1547795870E-01       4    7    1         0.8335836609E+00      0.1860442877E+01
          0                 3           2             4    7     1      -0.1053995150E-02       4    7    1        -0.5835110500E-01      0.1302333341E+00
          0                 4           1             4    7     1       0.4193943727E-04       4    7    1         0.2386562478E-02      0.5326543746E-02

    ------------------------------------------------
       NWT REQUIRED            4 OUTER ITERATIONS 
       AND A TOTAL OF          7 INNER ITERATIONS.
    ------------------------------------------------

 NO OUTPUT CONTROL FOR STRESS PERIOD    8   TIME STEP    8
 
 SOLVING FOR HEAD 
                                                   Max.-Head-Change                         Max.-Flux-Residual
  Residual-Control   Outer-Iter.   Inner-Iter.     Column Row Layer    Maximum-Head-Change  Column Row Layer    Maximum-Flux-Residual          L2-NORM 
          0                 1           2             4    7     1      -0.1577884769E+00       4    7    1        -0.8267774082E+01      0.1837622773E+02
          0                 2           2             4    7     1       0.1534815558E-01       4    7    1         0.8267534367E+00      0.1837547963E+01
          0                 3           2             4    7     1      -0.1045156003E-02       4    7    1        -0.5787299240E-01      0.1286287015E+00
          0                 4           1             4    7     1       0.4158771957E-04       4    7    1         0.2367007647E-02      0.5261081984E-02

    ------------------------------------------------
       NWT REQUIRED            4 OUTER ITERATIONS 
       AND A TOTAL OF          7 INNER ITERATIONS.
    ------------------------------------------------

 NO OUTPUT CONTROL FOR STRESS PERIOD    8   TIME STEP    9
 
 SOLVING FOR HEAD 
                                                   Max.-Head-Change                         Max.-Flux-Residual
  Residual-Control   Outer-Iter.   Inner-Iter.     Column Row Layer    Maximum-Head-Change  Column Row Layer    Maximum-Flux-Residual          L2-NORM 
          0                 1           2             4    7     1      -0.1564371853E+00       4    7    1        -0.8198436941E+01      0.1815643383E+02
          0                 2           2             4    7     1       0.1521670982E-01       4    7    1         0.8198194532E+00      0.1815613697E+01
          0                 3           2             4    7     1      -0.1036205071E-02       4    7    1        -0.5738761585E-01      0.1270932664E+00
          0                 4           1             4    7     1       0.4123155288E-04       4    7    1         0.2347155701E-02      0.5198117725E-02

    ------------------------------------------------
       NWT REQUIRED            4 OUTER ITERATIONS 
       AND A TOTAL OF          7 INNER ITERATIONS.
    ------------------------------------------------

 OUTPUT CONTROL FOR STRESS PERIOD    8   TIME STEP   10
    PRINT BUDGET
    SAVE BUDGET
 UBDSV1 SAVING "         STORAGE" ON UNIT 102 AT TIME STEP 10, STRESS PERIOD 8
 UBDSV2 SAVING "   CONSTANT HEAD" ON UNIT 102 AT TIME STEP 10, STRESS PERIOD 8
 UBDSV1 SAVING "FLOW RIGHT FACE " ON UNIT 102 AT TIME STEP 10, STRESS PERIOD 8
 UBDSV1 SAVING "FLOW FRONT FACE " ON UNIT 102 AT TIME STEP 10, STRESS PERIOD 8

  HEAD DEP BOUNDS   PERIOD    8   STEP    10
 BOUNDARY      1   LAYER   1   ROW    13   COL     1   RATE   -0.291014    
 BOUNDARY      2   LAYER   1   ROW    14   COL     9   RATE    0.287951    



 STREAM LISTING     PERIOD      8   STEP       10

 LAYER ROW COL. STREAM  RCH.  FLOW INTO     FLOW TO   FLOW OUT OF   OVRLND.     DIRECT     STREAM       STREAM     STREAM     STREAM   STREAMBED  STREAMBED
                SEG.NO.  NO.  STRM. RCH.    AQUIFER    STRM. RCH.    RUNOFF     PRECIP       ET          HEAD       DEPTH      WIDTH   CONDCTNC.   GRADIENT

   1    1    1     1     1    2.8125E+01  2.5915E-01   2.7866E+01  0.000E+00  0.000E+00  0.000E+00  1.09427E+03  1.223E+00  1.364E+01  6.137E-02  1.408E+00
   1    2    2     1     2    2.7866E+01  4.0087E-01   2.7465E+01  0.000E+00  0.000E+00  0.000E+00  1.08928E+03  1.218E+00  1.358E+01  9.503E-02  1.406E+00
   1    3    3     1     3    2.7465E+01  3.4143E-01   2.7124E+01  0.000E+00  0.000E+00  0.000E+00  1.08363E+03  1.213E+00  1.351E+01  8.104E-02  1.404E+00
   1    3    4     1     4    2.7124E+01  3.1403E-01   2.6810E+01  0.000E+00  0.000E+00  0.000E+00  1.07862E+03  1.209E+00  1.344E+01  7.461E-02  1.403E+00
   1    4    5     2     1    2.4810E+01  3.2739E-01   2.4482E+01  0.000E+00  0.000E+00  0.000E+00  1.07313E+03  1.197E+00  1.200E+01  7.800E-02  1.399E+00
   1    5    6     2     2    2.4482E+01  2.5133E-01   2.4231E+01  0.000E+00  0.000E+00  0.000E+00  1.06770E+03  1.189E+00  1.200E+01  6.000E-02  1.396E+00
   1    6    6     2     3    2.4231E+01  2.5089E-01   2.3980E+01  0.000E+00  0.000E+00  0.000E+00  1.06297E+03  1.181E+00  1.200E+01  6.000E-02  1.394E+00
   1    7    6     2     4    2.3980E+01  2.5044E-01   2.3730E+01  0.000E+00  0.000E+00  0.000E+00  1.05825E+03  1.174E+00  1.200E+01  6.000E-02  1.391E+00
   1    8    6     2     5    2.3730E+01  2.5000E-01   2.3480E+01  0.000E+00  0.000E+00  0.000E+00  1.05353E+03  1.167E+00  1.200E+01  6.000E-02  1.389E+00
   1    3    5     3     1    2.0000E+00  2.8252E-01   1.7175E+00  0.000E+00  0.000E+00  0.000E+00  1.07555E+03  1.909E+00  9.636E+00  7.227E-02  1.955E+00
   1    3    6     3     2    1.7175E+00  2.4905E-01   1.4684E+00  0.000E+00  0.000E+00  0.000E+00  1.07264E+03  1.727E+00  8.909E+00  6.682E-02  1.864E+00
   1    3    7     3     3    1.4684E+00  1.9718E-01   1.2712E+00  0.000E+00  0.000E+00  0.000E+00  1.06987E+03  1.555E+00  8.218E+00  5.547E-02  1.777E+00
   1    4    8     3     4    1.2712E+00  2.2567E-01   1.0456E+00  0.000E+00  0.000E+00  0.000E+00  1.06682E+03  1.364E+00  7.455E+00  6.709E-02  1.682E+00
   1    5    8     3     5    1.0456E+00  1.5790E-01   8.8768E-01  0.000E+00  0.000E+00  0.000E+00  1.06362E+03  1.164E+00  6.655E+00  4.991E-02  1.582E+00
   1    6    8     3     6    8.8768E-01  5.5980E-02   8.3170E-01  0.000E+00  0.000E+00  0.000E+00  1.06158E+03  1.036E+00  6.145E+00  1.844E-02  1.518E+00
   1    5   10     4     1    1.0000E+01  9.0919E-02   9.9091E+00  0.000E+00  0.000E+00  0.000E+00  1.07836E+03  6.368E-01  1.000E+01  2.500E-02  1.212E+00
   1    5    9     4     2    9.9091E+00  1.8158E-01   9.7275E+00  0.000E+00  0.000E+00  0.000E+00  1.07154E+03  6.315E-01  1.000E+01  5.000E-02  1.211E+00
   1    6    8     4     3    9.7275E+00  1.2689E-01   9.6006E+00  0.000E+00  0.000E+00  0.000E+00  1.06381E+03  6.256E-01  1.000E+01  3.500E-02  1.209E+00
   1    6    8     5     1    1.0432E+01  2.2686E-01   1.0205E+01  0.000E+00  0.000E+00  0.000E+00  1.05868E+03  6.790E-01  1.542E+01  6.166E-02  1.226E+00
   1    7    7     5     2    1.0205E+01  2.7894E-01   9.9265E+00  0.000E+00  0.000E+00  0.000E+00  1.05417E+03  6.732E-01  1.519E+01  7.594E-02  1.224E+00
   1    8    7     5     3    9.9265E+00  1.9221E-01   9.7343E+00  0.000E+00  0.000E+00  0.000E+00  1.04992E+03  6.676E-01  1.497E+01  5.241E-02  1.223E+00
   1    8    6     5     4    9.7343E+00  1.3577E-01   9.5985E+00  0.000E+00  0.000E+00  0.000E+00  1.04691E+03  6.637E-01  1.482E+01  3.706E-02  1.221E+00
   1    9    6     6     1    3.3078E+01  2.6646E-01   3.2812E+01  0.000E+00  0.000E+00  0.000E+00  1.04417E+03  1.441E+00  1.200E+01  6.000E-02  1.480E+00
   1   10    7     6     2    3.2812E+01  2.6604E-01   3.2546E+01  0.000E+00  0.000E+00  0.000E+00  1.03962E+03  1.434E+00  1.200E+01  6.000E-02  1.478E+00
   1   11    7     6     3    3.2546E+01  2.6562E-01   3.2280E+01  0.000E+00  0.000E+00  0.000E+00  1.03506E+03  1.427E+00  1.200E+01  6.000E-02  1.476E+00
   1   12    7     6     4    3.2280E+01  2.6519E-01   3.2015E+01  0.000E+00  0.000E+00  0.000E+00  1.03051E+03  1.420E+00  1.200E+01  6.000E-02  1.473E+00
   1   13    7     6     5    3.2015E+01  1.0597E-02   3.2004E+01  0.000E+00  0.000E+00  0.000E+00  1.02733E+03  1.416E+00  1.200E+01  2.400E-02  1.472E-01
   1   14    9     7     1    1.5000E+02  1.3680E+00   1.4863E+02  0.000E+00  0.000E+00  0.000E+00  1.03987E+03  2.288E+00  5.529E+01  5.593E-01  8.153E-01
   1   13    8     7     2    1.4863E+02  1.9120E+00   1.4672E+02  0.000E+00  0.000E+00  0.000E+00  1.03478E+03  2.279E+00  5.526E+01  6.148E-01  1.037E+00
   1   13    7     7     3    1.4672E+02  1.5665E+00   1.4515E+02  0.000E+00  0.000E+00  0.000E+00  1.02969E+03  2.270E+00  5.521E+01  5.584E-01  9.351E-01
   1   13    6     8     1    1.7716E+02  1.0299E+00   1.7613E+02  0.000E+00  0.000E+00  0.000E+00  1.02487E+03  2.995E+00  4.343E+01  4.425E-01  7.757E-01
   1   13    5     8     2    1.7613E+02  2.5193E-01   1.7588E+02  0.000E+00  0.000E+00  0.000E+00  1.01862E+03  2.991E+00  4.337E+01  4.419E-01  1.900E-01
   1   13    4     8     3    1.7588E+02 -2.2442E+00   1.7812E+02  0.000E+00  0.000E+00  0.000E+00  1.01237E+03  2.997E+00  4.346E+01  4.429E+00 -1.689E-01
   1   13    3     8     4    1.7812E+02 -3.5606E+00   1.8168E+02  0.000E+00  0.000E+00  0.000E+00  1.00614E+03  3.016E+00  4.373E+01  4.456E+00 -2.664E-01
   1   13    2     8     5    1.8168E+02 -2.5618E+00   1.8424E+02  0.000E+00  0.000E+00  0.000E+00  9.99910E+02  3.035E+00  4.400E+01  4.484E+00 -1.904E-01
   1   13    1     8     6    1.8424E+02 -1.9853E+00   1.8623E+02  0.000E+00  0.000E+00  0.000E+00  9.94924E+02  3.049E+00  4.421E+01  2.703E+00 -2.448E-01
   1    8    6     9     1    0.0000E+00  0.0000E+00   0.0000E+00  0.000E+00  0.000E+00  0.000E+00  1.07875E+03  0.000E+00  4.000E+00  0.000E+00  1.000E+00
   1    8    5     9     2    0.0000E+00  0.0000E+00   0.0000E+00  0.000E+00  0.000E+00  0.000E+00  1.07825E+03  0.000E+00  4.000E+00  0.000E+00  1.000E+00



 UBDSV3 SAVING "           GW ET" ON UNIT  61 AT TIME STEP 10, STRESS PERIOD 8
 UBDSV3 SAVING "    UZF RECHARGE" ON UNIT  61 AT TIME STEP 10, STRESS PERIOD 8
 UBDSV3 SAVING " SURFACE LEAKAGE" ON UNIT  61 AT TIME STEP 10, STRESS PERIOD 8
 UBDSV3 SAVING "       HORT+DUNN" ON UNIT  61 AT TIME STEP 10, STRESS PERIOD 8
 UBDSV3 SAVING "  STORAGE CHANGE" ON UNIT  61 AT TIME STEP 10, STRESS PERIOD 8


UNSATURATED ZONE PACKAGE VOLUMETRIC BUDGET FOR  TIME STEP    10 STRESS PERIOD    8
  ------------------------------------------------------------------------------



     CUMULATIVE VOLUMES      L**3       RATES FOR THIS TIME STEP      L**3/T
     ------------------                 ------------------------

           IN:                                      IN:
           ---                                      ---
        INFILTRATION =   155289794.0734          INFILTRATION =          60.8175

          OUT:                                     OUT:
          ----                                     ----
              UZF ET =   155132210.7096                UZF ET =          60.8175
        UZF RECHARGE =       73224.0000          UZF RECHARGE =       0.0000E+00

            IN - OUT =       84359.3638              IN - OUT =       0.0000E+00

          STORAGE:                                 STORAGE:
          --------                                 --------
      STORAGE CHANGE =       84359.1881        STORAGE CHANGE =       4.1498E-17

 PERCENT DISCREPANCY IS DIFFERENCE BETWEEN IN-OUT MINUS CHANGE IN STORAGE
 DIVIDED BY THE AVERAGE OF IN AND OUT TIMES 100

 PERCENT DISCREPANCY =           0.00     PERCENT DISCREPANCY =           0.00






 

            AG WELLS      PERIOD    8   STEP  10
 AG WELL      1   LAYER   1   ROW     6   COL     4   RATE    -9.99500    
 AG WELL      2   LAYER   1   ROW     6   COL     5   RATE    -9.99500    
 AG WELL      3   LAYER   1   ROW     7   COL     4   RATE    -9.99500    
 AG WELL      4   LAYER   1   ROW     7   COL     5   RATE    -9.99500    
 AG WELL      5   LAYER   1   ROW     8   COL     4   RATE    -9.99500    
 AG WELL      6   LAYER   1   ROW     8   COL     5   RATE    -9.99500    
 
 

   DIVERSION SEGMENTS     PERIOD    8   STEP  10
 SEGMENT      9   RATE     0.00000    
 
 

        SW IRRIGATION     PERIOD    8   STEP  10
 SEGMENT      9   ROW     6   COL     4   RATE     0.00000    
 SEGMENT      9   ROW     6   COL     5   RATE     0.00000    
 SEGMENT      9   ROW     7   COL     4   RATE     0.00000    
 SEGMENT      9   ROW     7   COL     5   RATE     0.00000    
 SEGMENT      9   ROW     8   COL     4   RATE     0.00000    
 SEGMENT      9   ROW     8   COL     5   RATE     0.00000    
 
 

        GW IRRIGATION     PERIOD    8   STEP  10
 AG WELL      1   ROW     6   COL     4   RATE     9.99500    
 AG WELL      2   ROW     6   COL     5   RATE     9.99500    
 AG WELL      3   ROW     7   COL     4   RATE     9.99500    
 AG WELL      4   ROW     7   COL     5   RATE     9.99500    
 AG WELL      5   ROW     8   COL     4   RATE     9.99500    
 AG WELL      6   ROW     8   COL     5   RATE     9.99500    
 
1
  VOLUMETRIC BUDGET FOR AGRICULTURAL FIELDS AT  END OF TIME STEP   10, STRESS PERIOD   8
  ------------------------------------------------------------------------------

     CUMULATIVE VOLUMES      L**3       RATES FOR THIS TIME STEP      L**3/T
     ------------------                 ------------------------

           IN:                                      IN:
           ---                                      ---
               AG WELLS  =   141100096.0000                 AG WELLS  =          59.9700
      DIVERSION SEGMENTS =           0.0000        DIVERSION SEGMENTS =           0.0000
       IRRIGATION PONDS  =           0.0000         IRRIGATION PONDS  =           0.0000
           GW IRRIGATION =           0.0000             GW IRRIGATION =           0.0000
           SW IRRIGATION =           0.0000             SW IRRIGATION =           0.0000
        SYSTEM LOSSES GW =           0.0000          SYSTEM LOSSES GW =           0.0000
        SYSTEM LOSSES SW =           0.0000          SYSTEM LOSSES SW =           0.0000

                TOTAL IN =   141100096.0000                  TOTAL IN =          59.9700

          OUT:                                     OUT:
          ----                                     ----
               AG WELLS  =           0.0000                 AG WELLS  =           0.0000
      DIVERSION SEGMENTS =           0.0000        DIVERSION SEGMENTS =           0.0000
       IRRIGATION PONDS  =           0.0000         IRRIGATION PONDS  =           0.0000
           GW IRRIGATION =   141100096.0000             GW IRRIGATION =          59.9700
           SW IRRIGATION =           0.0000             SW IRRIGATION =           0.0000
        SYSTEM LOSSES GW =           0.0000          SYSTEM LOSSES GW =           0.0000
        SYSTEM LOSSES SW =           0.0000          SYSTEM LOSSES SW =           0.0000

               TOTAL OUT =   141100096.0000                 TOTAL OUT =          59.9700

                IN - OUT =           0.0000                  IN - OUT =           0.0000

     PERCENT DISCREPANCY =           0.00         PERCENT DISCREPANCY =           0.00



1
  VOLUMETRIC BUDGET FOR ENTIRE MODEL AT END OF TIME STEP   10, STRESS PERIOD   8
  ------------------------------------------------------------------------------

     CUMULATIVE VOLUMES      L**3       RATES FOR THIS TIME STEP      L**3/T
     ------------------                 ------------------------

           IN:                                      IN:
           ---                                      ---
             STORAGE     =   141039680.0000               STORAGE     =          58.8435
       CONSTANT HEAD     =           0.0000         CONSTANT HEAD     =           0.0000
     HEAD DEP BOUNDS     =     4819895.5000       HEAD DEP BOUNDS     =           0.2880
      STREAM LEAKAGE     =   199958928.0000        STREAM LEAKAGE     =          12.2491
        UZF RECHARGE     =       73223.9531          UZF RECHARGE     =           0.0000
               GW ET     =           0.0000                 GW ET     =           0.0000
     SURFACE LEAKAGE     =           0.0000       SURFACE LEAKAGE     =           0.0000
           AG WELLS      =           0.0000             AG WELLS      =           0.0000

                TOTAL IN =   345891712.0000                  TOTAL IN =          71.3806

          OUT:                                     OUT:
          ----                                     ----
             STORAGE     =    30106958.0000               STORAGE     =           0.7679
       CONSTANT HEAD     =           0.0000         CONSTANT HEAD     =           0.0000
     HEAD DEP BOUNDS     =     4842573.5000       HEAD DEP BOUNDS     =           0.2910
      STREAM LEAKAGE     =   169843936.0000        STREAM LEAKAGE     =          10.3519
        UZF RECHARGE     =           0.0000          UZF RECHARGE     =           0.0000
               GW ET     =           0.0000                 GW ET     =           0.0000
     SURFACE LEAKAGE     =           0.0000       SURFACE LEAKAGE     =           0.0000
           AG WELLS      =   141100096.0000             AG WELLS      =          59.9700

               TOTAL OUT =   345893568.0000                 TOTAL OUT =          71.3808

                IN - OUT =       -1856.0000                  IN - OUT =      -2.0599E-04

     PERCENT DISCREPANCY =          -0.00         PERCENT DISCREPANCY =          -0.00






         TIME SUMMARY AT END OF TIME STEP   10 IN STRESS PERIOD    8
                    SECONDS     MINUTES      HOURS       DAYS        YEARS
                    -----------------------------------------------------------
   TIME STEP LENGTH  87667.      1461.1      24.352      1.0147     2.77799E-03
 STRESS PERIOD TIME 8.76667E+05  14611.      243.52      10.147     2.77799E-02
         TOTAL TIME 1.67431E+07 2.79052E+05  4650.9      193.79     0.53056    
1
 
 SOLVING FOR HEAD 
                                                   Max.-Head-Change                         Max.-Flux-Residual
  Residual-Control   Outer-Iter.   Inner-Iter.     Column Row Layer    Maximum-Head-Change  Column Row Layer    Maximum-Flux-Residual          L2-NORM 
          0                 1           2             4    7     1      -0.1550718253E+00       4    7    1        -0.8128221416E+01      0.1794479101E+02
          0                 2           2             4    7     1       0.1508389468E-01       4    7    1         0.8127977000E+00      0.1794449856E+01
          0                 3           2             4    7     1      -0.1027160880E-02       4    7    1        -0.5689609482E-01      0.1256117854E+00
          0                 4           1             4    7     1       0.4087167598E-04       4    7    1         0.2327052439E-02      0.5137525821E-02

    ------------------------------------------------
       NWT REQUIRED            4 OUTER ITERATIONS 
       AND A TOTAL OF          7 INNER ITERATIONS.
    ------------------------------------------------

 NO OUTPUT CONTROL FOR STRESS PERIOD    8   TIME STEP   11
 
 SOLVING FOR HEAD 
                                                   Max.-Head-Change                         Max.-Flux-Residual
  Residual-Control   Outer-Iter.   Inner-Iter.     Column Row Layer    Maximum-Head-Change  Column Row Layer    Maximum-Flux-Residual          L2-NORM 
          0                 1           2             4    7     1      -0.1536950741E+00       4    7    1        -0.8057276653E+01      0.1774079691E+02
          0                 2           2             4    7     1       0.1494997241E-01       4    7    1         0.8057030854E+00      0.1774050922E+01
          0                 3           2             4    7     1      -0.1018041289E-02       4    7    1        -0.5639947288E-01      0.1241838580E+00
          0                 4           1             4    7     1       0.4050879908E-04       4    7    1         0.2306740568E-02      0.5079124242E-02

    ------------------------------------------------
       NWT REQUIRED            4 OUTER ITERATIONS 
       AND A TOTAL OF          7 INNER ITERATIONS.
    ------------------------------------------------

 NO OUTPUT CONTROL FOR STRESS PERIOD    8   TIME STEP   12
 
 SOLVING FOR HEAD 
                                                   Max.-Head-Change                         Max.-Flux-Residual
  Residual-Control   Outer-Iter.   Inner-Iter.     Column Row Layer    Maximum-Head-Change  Column Row Layer    Maximum-Flux-Residual          L2-NORM 
          0                 1           2             4    7     1      -0.1523092859E+00       4    7    1        -0.7985734051E+01      0.1754399534E+02
          0                 2           2             4    7     1       0.1481517193E-01       4    7    1         0.7985487442E+00      0.1754371248E+01
          0                 3           2             4    7     1      -0.1008861886E-02       4    7    1        -0.5589866957E-01      0.1228062851E+00
          0                 4           1             4    7     1       0.4014354214E-04       4    7    1         0.2286257695E-02      0.5022783856E-02

    ------------------------------------------------
       NWT REQUIRED            4 OUTER ITERATIONS 
       AND A TOTAL OF          7 INNER ITERATIONS.
    ------------------------------------------------

 NO OUTPUT CONTROL FOR STRESS PERIOD    8   TIME STEP   13
 
 SOLVING FOR HEAD 
                                                   Max.-Head-Change                         Max.-Flux-Residual
  Residual-Control   Outer-Iter.   Inner-Iter.     Column Row Layer    Maximum-Head-Change  Column Row Layer    Maximum-Flux-Residual          L2-NORM 
          0                 1           2             4    7     1      -0.1509169070E+00       4    7    1        -0.7913730297E+01      0.1735396403E+02
          0                 2           2             4    7     1       0.1467973111E-01       4    7    1         0.7913483395E+00      0.1735368612E+01
          0                 3           2             4    7     1      -0.9996388722E-03       4    7    1        -0.5539464129E-01      0.1214760971E+00
          0                 4           1             4    7     1       0.3977654989E-04       4    7    1         0.2265642915E-02      0.4968376058E-02

    ------------------------------------------------
       NWT REQUIRED            4 OUTER ITERATIONS 
       AND A TOTAL OF          7 INNER ITERATIONS.
    ------------------------------------------------

 NO OUTPUT CONTROL FOR STRESS PERIOD    8   TIME STEP   14
 
 SOLVING FOR HEAD 
                                                   Max.-Head-Change                         Max.-Flux-Residual
  Residual-Control   Outer-Iter.   Inner-Iter.     Column Row Layer    Maximum-Head-Change  Column Row Layer    Maximum-Flux-Residual          L2-NORM 
          0                 1           2             4    7     1      -0.1495199359E+00       4    7    1        -0.7841377625E+01      0.1717031043E+02
          0                 2           2             4    7     1       0.1454384429E-01       4    7    1         0.7841130899E+00      0.1717003750E+01
          0                 3           2             4    7     1      -0.9903854792E-03       4    7    1        -0.5488817344E-01      0.1201905536E+00
          0                 4           1             4    7     1       0.3940834822E-04       4    7    1         0.2244928329E-02      0.4915797277E-02

    ------------------------------------------------
       NWT REQUIRED            4 OUTER ITERATIONS 
       AND A TOTAL OF          7 INNER ITERATIONS.
    ------------------------------------------------

 OUTPUT CONTROL FOR STRESS PERIOD    8   TIME STEP   15
    PRINT BUDGET
    SAVE BUDGET
 UBDSV1 SAVING "         STORAGE" ON UNIT 102 AT TIME STEP 15, STRESS PERIOD 8
 UBDSV2 SAVING "   CONSTANT HEAD" ON UNIT 102 AT TIME STEP 15, STRESS PERIOD 8
 UBDSV1 SAVING "FLOW RIGHT FACE " ON UNIT 102 AT TIME STEP 15, STRESS PERIOD 8
 UBDSV1 SAVING "FLOW FRONT FACE " ON UNIT 102 AT TIME STEP 15, STRESS PERIOD 8

  HEAD DEP BOUNDS   PERIOD    8   STEP    15
 BOUNDARY      1   LAYER   1   ROW    13   COL     1   RATE   -0.290946    
 BOUNDARY      2   LAYER   1   ROW    14   COL     9   RATE    0.287953    



 STREAM LISTING     PERIOD      8   STEP       15

 LAYER ROW COL. STREAM  RCH.  FLOW INTO     FLOW TO   FLOW OUT OF   OVRLND.     DIRECT     STREAM       STREAM     STREAM     STREAM   STREAMBED  STREAMBED
                SEG.NO.  NO.  STRM. RCH.    AQUIFER    STRM. RCH.    RUNOFF     PRECIP       ET          HEAD       DEPTH      WIDTH   CONDCTNC.   GRADIENT

   1    1    1     1     1    2.8125E+01  2.5915E-01   2.7866E+01  0.000E+00  0.000E+00  0.000E+00  1.09427E+03  1.223E+00  1.364E+01  6.137E-02  1.408E+00
   1    2    2     1     2    2.7866E+01  4.0087E-01   2.7465E+01  0.000E+00  0.000E+00  0.000E+00  1.08928E+03  1.218E+00  1.358E+01  9.503E-02  1.406E+00
   1    3    3     1     3    2.7465E+01  3.4142E-01   2.7123E+01  0.000E+00  0.000E+00  0.000E+00  1.08363E+03  1.213E+00  1.351E+01  8.103E-02  1.404E+00
   1    3    4     1     4    2.7123E+01  3.1403E-01   2.6809E+01  0.000E+00  0.000E+00  0.000E+00  1.07862E+03  1.209E+00  1.344E+01  7.461E-02  1.403E+00
   1    4    5     2     1    2.4809E+01  3.2739E-01   2.4482E+01  0.000E+00  0.000E+00  0.000E+00  1.07313E+03  1.197E+00  1.200E+01  7.800E-02  1.399E+00
   1    5    6     2     2    2.4482E+01  2.5133E-01   2.4231E+01  0.000E+00  0.000E+00  0.000E+00  1.06770E+03  1.189E+00  1.200E+01  6.000E-02  1.396E+00
   1    6    6     2     3    2.4231E+01  2.5089E-01   2.3980E+01  0.000E+00  0.000E+00  0.000E+00  1.06297E+03  1.181E+00  1.200E+01  6.000E-02  1.394E+00
   1    7    6     2     4    2.3980E+01  2.5044E-01   2.3729E+01  0.000E+00  0.000E+00  0.000E+00  1.05825E+03  1.174E+00  1.200E+01  6.000E-02  1.391E+00
   1    8    6     2     5    2.3729E+01  2.5000E-01   2.3479E+01  0.000E+00  0.000E+00  0.000E+00  1.05353E+03  1.167E+00  1.200E+01  6.000E-02  1.389E+00
   1    3    5     3     1    2.0000E+00  2.8252E-01   1.7175E+00  0.000E+00  0.000E+00  0.000E+00  1.07555E+03  1.909E+00  9.636E+00  7.227E-02  1.955E+00
   1    3    6     3     2    1.7175E+00  2.4905E-01   1.4684E+00  0.000E+00  0.000E+00  0.000E+00  1.07264E+03  1.727E+00  8.909E+00  6.682E-02  1.864E+00
   1    3    7     3     3    1.4684E+00  1.9718E-01   1.2712E+00  0.000E+00  0.000E+00  0.000E+00  1.06987E+03  1.555E+00  8.218E+00  5.547E-02  1.777E+00
   1    4    8     3     4    1.2712E+00  2.2567E-01   1.0456E+00  0.000E+00  0.000E+00  0.000E+00  1.06682E+03  1.364E+00  7.455E+00  6.709E-02  1.682E+00
   1    5    8     3     5    1.0456E+00  1.5790E-01   8.8768E-01  0.000E+00  0.000E+00  0.000E+00  1.06362E+03  1.164E+00  6.655E+00  4.991E-02  1.582E+00
   1    6    8     3     6    8.8768E-01  5.5980E-02   8.3170E-01  0.000E+00  0.000E+00  0.000E+00  1.06158E+03  1.036E+00  6.145E+00  1.844E-02  1.518E+00
   1    5   10     4     1    1.0000E+01  9.0919E-02   9.9091E+00  0.000E+00  0.000E+00  0.000E+00  1.07836E+03  6.368E-01  1.000E+01  2.500E-02  1.212E+00
   1    5    9     4     2    9.9091E+00  1.8158E-01   9.7275E+00  0.000E+00  0.000E+00  0.000E+00  1.07154E+03  6.315E-01  1.000E+01  5.000E-02  1.211E+00
   1    6    8     4     3    9.7275E+00  1.2689E-01   9.6006E+00  0.000E+00  0.000E+00  0.000E+00  1.06381E+03  6.256E-01  1.000E+01  3.500E-02  1.209E+00
   1    6    8     5     1    1.0432E+01  2.2686E-01   1.0205E+01  0.000E+00  0.000E+00  0.000E+00  1.05868E+03  6.790E-01  1.542E+01  6.166E-02  1.226E+00
   1    7    7     5     2    1.0205E+01  2.7894E-01   9.9265E+00  0.000E+00  0.000E+00  0.000E+00  1.05417E+03  6.732E-01  1.519E+01  7.594E-02  1.224E+00
   1    8    7     5     3    9.9265E+00  1.9221E-01   9.7343E+00  0.000E+00  0.000E+00  0.000E+00  1.04992E+03  6.676E-01  1.497E+01  5.241E-02  1.223E+00
   1    8    6     5     4    9.7343E+00  1.3577E-01   9.5985E+00  0.000E+00  0.000E+00  0.000E+00  1.04691E+03  6.637E-01  1.482E+01  3.706E-02  1.221E+00
   1    9    6     6     1    3.3078E+01  2.6646E-01   3.2811E+01  0.000E+00  0.000E+00  0.000E+00  1.04417E+03  1.441E+00  1.200E+01  6.000E-02  1.480E+00
   1   10    7     6     2    3.2811E+01  2.6604E-01   3.2545E+01  0.000E+00  0.000E+00  0.000E+00  1.03962E+03  1.434E+00  1.200E+01  6.000E-02  1.478E+00
   1   11    7     6     3    3.2545E+01  2.6561E-01   3.2280E+01  0.000E+00  0.000E+00  0.000E+00  1.03506E+03  1.427E+00  1.200E+01  6.000E-02  1.476E+00
   1   12    7     6     4    3.2280E+01  2.6519E-01   3.2015E+01  0.000E+00  0.000E+00  0.000E+00  1.03051E+03  1.420E+00  1.200E+01  6.000E-02  1.473E+00
   1   13    7     6     5    3.2015E+01  1.0576E-02   3.2004E+01  0.000E+00  0.000E+00  0.000E+00  1.02733E+03  1.416E+00  1.200E+01  2.400E-02  1.469E-01
   1   14    9     7     1    1.5000E+02  1.3681E+00   1.4863E+02  0.000E+00  0.000E+00  0.000E+00  1.03987E+03  2.288E+00  5.529E+01  5.593E-01  8.153E-01
   1   13    8     7     2    1.4863E+02  1.9117E+00   1.4672E+02  0.000E+00  0.000E+00  0.000E+00  1.03478E+03  2.279E+00  5.526E+01  6.148E-01  1.037E+00
   1   13    7     7     3    1.4672E+02  1.5659E+00   1.4515E+02  0.000E+00  0.000E+00  0.000E+00  1.02969E+03  2.270E+00  5.521E+01  5.584E-01  9.348E-01
   1   13    6     8     1    1.7716E+02  1.0297E+00   1.7613E+02  0.000E+00  0.000E+00  0.000E+00  1.02487E+03  2.995E+00  4.343E+01  4.425E-01  7.756E-01
   1   13    5     8     2    1.7613E+02  2.5196E-01   1.7588E+02  0.000E+00  0.000E+00  0.000E+00  1.01862E+03  2.991E+00  4.337E+01  4.419E-01  1.900E-01
   1   13    4     8     3    1.7588E+02 -2.2376E+00   1.7811E+02  0.000E+00  0.000E+00  0.000E+00  1.01237E+03  2.997E+00  4.346E+01  4.429E+00 -1.684E-01
   1   13    3     8     4    1.7811E+02 -3.5535E+00   1.8167E+02  0.000E+00  0.000E+00  0.000E+00  1.00614E+03  3.015E+00  4.372E+01  4.456E+00 -2.658E-01
   1   13    2     8     5    1.8167E+02 -2.5531E+00   1.8422E+02  0.000E+00  0.000E+00  0.000E+00  9.99910E+02  3.035E+00  4.400E+01  4.484E+00 -1.898E-01
   1   13    1     8     6    1.8422E+02 -1.9807E+00   1.8620E+02  0.000E+00  0.000E+00  0.000E+00  9.94924E+02  3.049E+00  4.420E+01  2.703E+00 -2.443E-01
   1    8    6     9     1    0.0000E+00  0.0000E+00   0.0000E+00  0.000E+00  0.000E+00  0.000E+00  1.07875E+03  0.000E+00  4.000E+00  0.000E+00  1.000E+00
   1    8    5     9     2    0.0000E+00  0.0000E+00   0.0000E+00  0.000E+00  0.000E+00  0.000E+00  1.07825E+03  0.000E+00  4.000E+00  0.000E+00  1.000E+00



 UBDSV3 SAVING "           GW ET" ON UNIT  61 AT TIME STEP 15, STRESS PERIOD 8
 UBDSV3 SAVING "    UZF RECHARGE" ON UNIT  61 AT TIME STEP 15, STRESS PERIOD 8
 UBDSV3 SAVING " SURFACE LEAKAGE" ON UNIT  61 AT TIME STEP 15, STRESS PERIOD 8
 UBDSV3 SAVING "       HORT+DUNN" ON UNIT  61 AT TIME STEP 15, STRESS PERIOD 8
 UBDSV3 SAVING "  STORAGE CHANGE" ON UNIT  61 AT TIME STEP 15, STRESS PERIOD 8


UNSATURATED ZONE PACKAGE VOLUMETRIC BUDGET FOR  TIME STEP    15 STRESS PERIOD    8
  ------------------------------------------------------------------------------



     CUMULATIVE VOLUMES      L**3       RATES FOR THIS TIME STEP      L**3/T
     ------------------                 ------------------------

           IN:                                      IN:
           ---                                      ---
        INFILTRATION =   181948130.3028          INFILTRATION =          60.8175

          OUT:                                     OUT:
          ----                                     ----
              UZF ET =   181790546.9390                UZF ET =          60.8175
        UZF RECHARGE =       73224.0000          UZF RECHARGE =       0.0000E+00

            IN - OUT =       84359.3638              IN - OUT =       0.0000E+00

          STORAGE:                                 STORAGE:
          --------                                 --------
      STORAGE CHANGE =       84359.1881        STORAGE CHANGE =       0.0000E+00

 PERCENT DISCREPANCY IS DIFFERENCE BETWEEN IN-OUT MINUS CHANGE IN STORAGE
 DIVIDED BY THE AVERAGE OF IN AND OUT TIMES 100

 PERCENT DISCREPANCY =           0.00     PERCENT DISCREPANCY =           0.00






 

            AG WELLS      PERIOD    8   STEP  15
 AG WELL      1   LAYER   1   ROW     6   COL     4   RATE    -9.99500    
 AG WELL      2   LAYER   1   ROW     6   COL     5   RATE    -9.99500    
 AG WELL      3   LAYER   1   ROW     7   COL     4   RATE    -9.99500    
 AG WELL      4   LAYER   1   ROW     7   COL     5   RATE    -9.99500    
 AG WELL      5   LAYER   1   ROW     8   COL     4   RATE    -9.99500    
 AG WELL      6   LAYER   1   ROW     8   COL     5   RATE    -9.99500    
 
 

   DIVERSION SEGMENTS     PERIOD    8   STEP  15
 SEGMENT      9   RATE     0.00000    
 
 

        SW IRRIGATION     PERIOD    8   STEP  15
 SEGMENT      9   ROW     6   COL     4   RATE     0.00000    
 SEGMENT      9   ROW     6   COL     5   RATE     0.00000    
 SEGMENT      9   ROW     7   COL     4   RATE     0.00000    
 SEGMENT      9   ROW     7   COL     5   RATE     0.00000    
 SEGMENT      9   ROW     8   COL     4   RATE     0.00000    
 SEGMENT      9   ROW     8   COL     5   RATE     0.00000    
 
 

        GW IRRIGATION     PERIOD    8   STEP  15
 AG WELL      1   ROW     6   COL     4   RATE     9.99500    
 AG WELL      2   ROW     6   COL     5   RATE     9.99500    
 AG WELL      3   ROW     7   COL     4   RATE     9.99500    
 AG WELL      4   ROW     7   COL     5   RATE     9.99500    
 AG WELL      5   ROW     8   COL     4   RATE     9.99500    
 AG WELL      6   ROW     8   COL     5   RATE     9.99500    
 
1
  VOLUMETRIC BUDGET FOR AGRICULTURAL FIELDS AT  END OF TIME STEP   15, STRESS PERIOD   8
  ------------------------------------------------------------------------------

     CUMULATIVE VOLUMES      L**3       RATES FOR THIS TIME STEP      L**3/T
     ------------------                 ------------------------

           IN:                                      IN:
           ---                                      ---
               AG WELLS  =   167386976.0000                 AG WELLS  =          59.9700
      DIVERSION SEGMENTS =           0.0000        DIVERSION SEGMENTS =           0.0000
       IRRIGATION PONDS  =           0.0000         IRRIGATION PONDS  =           0.0000
           GW IRRIGATION =           0.0000             GW IRRIGATION =           0.0000
           SW IRRIGATION =           0.0000             SW IRRIGATION =           0.0000
        SYSTEM LOSSES GW =           0.0000          SYSTEM LOSSES GW =           0.0000
        SYSTEM LOSSES SW =           0.0000          SYSTEM LOSSES SW =           0.0000

                TOTAL IN =   167386976.0000                  TOTAL IN =          59.9700

          OUT:                                     OUT:
          ----                                     ----
               AG WELLS  =           0.0000                 AG WELLS  =           0.0000
      DIVERSION SEGMENTS =           0.0000        DIVERSION SEGMENTS =           0.0000
       IRRIGATION PONDS  =           0.0000         IRRIGATION PONDS  =           0.0000
           GW IRRIGATION =   167386976.0000             GW IRRIGATION =          59.9700
           SW IRRIGATION =           0.0000             SW IRRIGATION =           0.0000
        SYSTEM LOSSES GW =           0.0000          SYSTEM LOSSES GW =           0.0000
        SYSTEM LOSSES SW =           0.0000          SYSTEM LOSSES SW =           0.0000

               TOTAL OUT =   167386976.0000                 TOTAL OUT =          59.9700

                IN - OUT =           0.0000                  IN - OUT =           0.0000

     PERCENT DISCREPANCY =           0.00         PERCENT DISCREPANCY =           0.00



1
  VOLUMETRIC BUDGET FOR ENTIRE MODEL AT END OF TIME STEP   15, STRESS PERIOD   8
  ------------------------------------------------------------------------------

     CUMULATIVE VOLUMES      L**3       RATES FOR THIS TIME STEP      L**3/T
     ------------------                 ------------------------

           IN:                                      IN:
           ---                                      ---
             STORAGE     =   166813696.0000               STORAGE     =          58.7719
       CONSTANT HEAD     =           0.0000         CONSTANT HEAD     =           0.0000
     HEAD DEP BOUNDS     =     4946115.5000       HEAD DEP BOUNDS     =           0.2880
      STREAM LEAKAGE     =   205327888.0000        STREAM LEAKAGE     =          12.2482
        UZF RECHARGE     =       73223.9531          UZF RECHARGE     =           0.0000
               GW ET     =           0.0000                 GW ET     =           0.0000
     SURFACE LEAKAGE     =           0.0000       SURFACE LEAKAGE     =           0.0000
           AG WELLS      =           0.0000             AG WELLS      =           0.0000

                TOTAL IN =   377160896.0000                  TOTAL IN =          71.3080

          OUT:                                     OUT:
          ----                                     ----
             STORAGE     =    30431684.0000               STORAGE     =           0.7223
       CONSTANT HEAD     =           0.0000         CONSTANT HEAD     =           0.0000
     HEAD DEP BOUNDS     =     4970116.5000       HEAD DEP BOUNDS     =           0.2909
      STREAM LEAKAGE     =   174374080.0000        STREAM LEAKAGE     =          10.3250
        UZF RECHARGE     =           0.0000          UZF RECHARGE     =           0.0000
               GW ET     =           0.0000                 GW ET     =           0.0000
     SURFACE LEAKAGE     =           0.0000       SURFACE LEAKAGE     =           0.0000
           AG WELLS      =   167386976.0000             AG WELLS      =          59.9700

               TOTAL OUT =   377162848.0000                 TOTAL OUT =          71.3083

                IN - OUT =       -1952.0000                  IN - OUT =      -2.0599E-04

     PERCENT DISCREPANCY =          -0.00         PERCENT DISCREPANCY =          -0.00






         TIME SUMMARY AT END OF TIME STEP   15 IN STRESS PERIOD    8
                    SECONDS     MINUTES      HOURS       DAYS        YEARS
                    -----------------------------------------------------------
   TIME STEP LENGTH  87667.      1461.1      24.352      1.0147     2.77799E-03
 STRESS PERIOD TIME 1.31500E+06  21917.      365.28      15.220     4.16698E-02
         TOTAL TIME 1.71814E+07 2.86357E+05  4772.6      198.86     0.54445    
1
 
 SOLVING FOR HEAD 
                                                   Max.-Head-Change                         Max.-Flux-Residual
  Residual-Control   Outer-Iter.   Inner-Iter.     Column Row Layer    Maximum-Head-Change  Column Row Layer    Maximum-Flux-Residual          L2-NORM 
          0                 1           2             4    7     1      -0.1481203553E+00       4    7    1        -0.7768786957E+01      0.1699268261E+02
          0                 2           2             4    7     1       0.1440770425E-01       4    7    1         0.7768540832E+00      0.1699241470E+01
          0                 3           2             4    7     1      -0.9811148380E-03       4    7    1        -0.5438004218E-01      0.1189471916E+00
          0                 4           1             4    7     1       0.3903946120E-04       4    7    1         0.2224145749E-02      0.4864945214E-02

    ------------------------------------------------
       NWT REQUIRED            4 OUTER ITERATIONS 
       AND A TOTAL OF          7 INNER ITERATIONS.
    ------------------------------------------------

 NO OUTPUT CONTROL FOR STRESS PERIOD    8   TIME STEP   16
 
 SOLVING FOR HEAD 
                                                   Max.-Head-Change                         Max.-Flux-Residual
  Residual-Control   Outer-Iter.   Inner-Iter.     Column Row Layer    Maximum-Head-Change  Column Row Layer    Maximum-Flux-Residual          L2-NORM 
          0                 1           2             4    7     1      -0.1467199907E+00       4    7    1        -0.7696061103E+01      0.1682074627E+02
          0                 2           2             4    7     1       0.1427148851E-01       4    7    1         0.7695815960E+00      0.1682048344E+01
          0                 3           2             4    7     1      -0.9718390361E-03       4    7    1        -0.5387096694E-01      0.1177436719E+00
          0                 4           1             4    7     1       0.3867036845E-04       4    7    1         0.2203324553E-02      0.4815722081E-02

    ------------------------------------------------
       NWT REQUIRED            4 OUTER ITERATIONS 
       AND A TOTAL OF          7 INNER ITERATIONS.
    ------------------------------------------------

 NO OUTPUT CONTROL FOR STRESS PERIOD    8   TIME STEP   17
 
 SOLVING FOR HEAD 
                                                   Max.-Head-Change                         Max.-Flux-Residual
  Residual-Control   Outer-Iter.   Inner-Iter.     Column Row Layer    Maximum-Head-Change  Column Row Layer    Maximum-Flux-Residual          L2-NORM 
          0                 1           2             4    7     1      -0.1453205262E+00       4    7    1        -0.7623294717E+01      0.1665420431E+02
          0                 2           2             4    7     1       0.1413536084E-01       4    7    1         0.7623050899E+00      0.1665394650E+01
          0                 3           2             4    7     1      -0.9625692257E-03       4    7    1        -0.5336161002E-01      0.1165779062E+00
          0                 4           1             4    7     1       0.3830151435E-04       4    7    1         0.2182491819E-02      0.4768040628E-02

    ------------------------------------------------
       NWT REQUIRED            4 OUTER ITERATIONS 
       AND A TOTAL OF          7 INNER ITERATIONS.
    ------------------------------------------------

 NO OUTPUT CONTROL FOR STRESS PERIOD    8   TIME STEP   18
 
 SOLVING FOR HEAD 
                                                   Max.-Head-Change                         Max.-Flux-Residual
  Residual-Control   Outer-Iter.   Inner-Iter.     Column Row Layer    Maximum-Head-Change  Column Row Layer    Maximum-Flux-Residual          L2-NORM 
          0                 1           2             4    7     1      -0.1439236470E+00       4    7    1        -0.7550582418E+01      0.1649277648E+02
          0                 2           2             4    7     1       0.1399948509E-01       4    7    1         0.7550340232E+00      0.1649252375E+01
          0                 3           2             4    7     1      -0.9533165669E-03       4    7    1        -0.5285263359E-01      0.1154479466E+00
          0                 4           1             4    7     1       0.3793334250E-04       4    7    1         0.2161674671E-02      0.4721825588E-02

    ------------------------------------------------
       NWT REQUIRED            4 OUTER ITERATIONS 
       AND A TOTAL OF          7 INNER ITERATIONS.
    ------------------------------------------------

 NO OUTPUT CONTROL FOR STRESS PERIOD    8   TIME STEP   19
 
 SOLVING FOR HEAD 
                                                   Max.-Head-Change                         Max.-Flux-Residual
  Residual-Control   Outer-Iter.   Inner-Iter.     Column Row Layer    Maximum-Head-Change  Column Row Layer    Maximum-Flux-Residual          L2-NORM 
          0                 1           2             4    7     1      -0.1425304956E+00       4    7    1        -0.7477989691E+01      0.1633619802E+02
          0                 2           2             4    7     1       0.1386397235E-01       4    7    1         0.7477749412E+00      0.1633595028E+01
          0                 3           2             4    7     1      -0.9440886233E-03       4    7    1        -0.5234449583E-01      0.1143519281E+00
          0                 4           1             4    7     1       0.3756615419E-04       4    7    1         0.2140891817E-02      0.4676999351E-02

    ------------------------------------------------
       NWT REQUIRED            4 OUTER ITERATIONS 
       AND A TOTAL OF          7 INNER ITERATIONS.
    ------------------------------------------------

 NO OUTPUT CONTROL FOR STRESS PERIOD    8   TIME STEP   20
 
 SOLVING FOR HEAD 
                                                   Max.-Head-Change                         Max.-Flux-Residual
  Residual-Control   Outer-Iter.   Inner-Iter.     Column Row Layer    Maximum-Head-Change  Column Row Layer    Maximum-Flux-Residual          L2-NORM 
          0                 1           2             4    7     1      -0.1411426435E+00       4    7    1        -0.7405604951E+01      0.1618422673E+02
          0                 2           2             4    7     1       0.1372897545E-01       4    7    1         0.7405366820E+00      0.1618398393E+01
          0                 3           2             4    7     1      -0.9348958028E-03       4    7    1        -0.5183781543E-01      0.1132881558E+00
          0                 4           1             4    7     1       0.3720036306E-04       4    7    1         0.2120168567E-02      0.4633491237E-02

    ------------------------------------------------
       NWT REQUIRED            4 OUTER ITERATIONS 
       AND A TOTAL OF          7 INNER ITERATIONS.
    ------------------------------------------------

 NO OUTPUT CONTROL FOR STRESS PERIOD    8   TIME STEP   21
 
 SOLVING FOR HEAD 
                                                   Max.-Head-Change                         Max.-Flux-Residual
  Residual-Control   Outer-Iter.   Inner-Iter.     Column Row Layer    Maximum-Head-Change  Column Row Layer    Maximum-Flux-Residual          L2-NORM 
          0                 1           2             4    7     1      -0.1397612763E+00       4    7    1        -0.7333495098E+01      0.1603664558E+02
          0                 2           2             4    7     1       0.1359460966E-01       4    7    1         0.7333259330E+00      0.1603640773E+01
          0                 3           2             4    7     1      -0.9257459556E-03       4    7    1        -0.5133306054E-01      0.1122551205E+00
          0                 4           1             4    7     1       0.3683628239E-04       4    7    1         0.2099524070E-02      0.4591240170E-02

    ------------------------------------------------
       NWT REQUIRED            4 OUTER ITERATIONS 
       AND A TOTAL OF          7 INNER ITERATIONS.
    ------------------------------------------------

 NO OUTPUT CONTROL FOR STRESS PERIOD    8   TIME STEP   22
 
 SOLVING FOR HEAD 
                                                   Max.-Head-Change                         Max.-Flux-Residual
  Residual-Control   Outer-Iter.   Inner-Iter.     Column Row Layer    Maximum-Head-Change  Column Row Layer    Maximum-Flux-Residual          L2-NORM 
          0                 1           2             4    7     1      -0.1383871983E+00       4    7    1        -0.7261707024E+01      0.1589323128E+02
          0                 2           2             4    7     1       0.1346095319E-01       4    7    1         0.7261473809E+00      0.1589299829E+01
          0                 3           2             4    7     1      -0.9166444079E-03       4    7    1        -0.5083055927E-01      0.1112512499E+00
          0                 4           1             4    7     1       0.3647412354E-04       4    7    1         0.2078971749E-02      0.4550181880E-02

    ------------------------------------------------
       NWT REQUIRED            4 OUTER ITERATIONS 
       AND A TOTAL OF          7 INNER ITERATIONS.
    ------------------------------------------------

 NO OUTPUT CONTROL FOR STRESS PERIOD    8   TIME STEP   23
 
 SOLVING FOR HEAD 
                                                   Max.-Head-Change                         Max.-Flux-Residual
  Residual-Control   Outer-Iter.   Inner-Iter.     Column Row Layer    Maximum-Head-Change  Column Row Layer    Maximum-Flux-Residual          L2-NORM 
          0                 1           2             4    7     1      -0.1370216718E+00       4    7    1        -0.7190311587E+01      0.1575381613E+02
          0                 2           2             4    7     1       0.1332812879E-01       4    7    1         0.7190081090E+00      0.1575358794E+01
          0                 3           2             4    7     1      -0.9075995181E-03       4    7    1        -0.5033080744E-01      0.1102753747E+00
          0                 4           1             4    7     1       0.3611421900E-04       4    7    1         0.2058531884E-02      0.4510267760E-02

    ------------------------------------------------
       NWT REQUIRED            4 OUTER ITERATIONS 
       AND A TOTAL OF          7 INNER ITERATIONS.
    ------------------------------------------------

 NO OUTPUT CONTROL FOR STRESS PERIOD    8   TIME STEP   24
 
 SOLVING FOR HEAD 
                                                   Max.-Head-Change                         Max.-Flux-Residual
  Residual-Control   Outer-Iter.   Inner-Iter.     Column Row Layer    Maximum-Head-Change  Column Row Layer    Maximum-Flux-Residual          L2-NORM 
          0                 1           2             4    7     1      -0.1356655754E+00       4    7    1        -0.7119359657E+01      0.1561819067E+02
          0                 2           2             4    7     1       0.1319622188E-01       4    7    1         0.7119132020E+00      0.1561796722E+01
          0                 3           2             4    7     1      -0.8986171050E-03       4    7    1        -0.4983416104E-01      0.1093260241E+00
          0                 4           1             4    7     1       0.3575680042E-04       4    7    1         0.2038219018E-02      0.4471440291E-02

    ------------------------------------------------
       NWT REQUIRED            4 OUTER ITERATIONS 
       AND A TOTAL OF          7 INNER ITERATIONS.
    ------------------------------------------------

 NO OUTPUT CONTROL FOR STRESS PERIOD    8   TIME STEP   25
 
 SOLVING FOR HEAD 
                                                   Max.-Head-Change                         Max.-Flux-Residual
  Residual-Control   Outer-Iter.   Inner-Iter.     Column Row Layer    Maximum-Head-Change  Column Row Layer    Maximum-Flux-Residual          L2-NORM 
          0                 1           2             4    7     1      -0.1343197069E+00       4    7    1        -0.7048896792E+01      0.1548620829E+02
          0                 2           2             4    7     1       0.1306531006E-01       4    7    1         0.7048672139E+00      0.1548598950E+01
          0                 3           2             4    7     1      -0.8897024516E-03       4    7    1        -0.4934093885E-01      0.1084021769E+00
          0                 4           1             4    7     1       0.3540207835E-04       4    7    1         0.2018046229E-02      0.4433654092E-02

    ------------------------------------------------
       NWT REQUIRED            4 OUTER ITERATIONS 
       AND A TOTAL OF          7 INNER ITERATIONS.
    ------------------------------------------------

 NO OUTPUT CONTROL FOR STRESS PERIOD    8   TIME STEP   26
 
 SOLVING FOR HEAD 
                                                   Max.-Head-Change                         Max.-Flux-Residual
  Residual-Control   Outer-Iter.   Inner-Iter.     Column Row Layer    Maximum-Head-Change  Column Row Layer    Maximum-Flux-Residual          L2-NORM 
          0                 1           2             4    7     1      -0.1329847816E+00       4    7    1        -0.6978964356E+01      0.1535769359E+02
          0                 2           2             4    7     1       0.1293546284E-01       4    7    1         0.6978742791E+00      0.1535747937E+01
          0                 3           2             4    7     1      -0.8808602924E-03       4    7    1        -0.4885143026E-01      0.1075026010E+00
          0                 4           1             4    7     1       0.3505024104E-04       4    7    1         0.1998025316E-02      0.4396861786E-02

    ------------------------------------------------
       NWT REQUIRED            4 OUTER ITERATIONS 
       AND A TOTAL OF          7 INNER ITERATIONS.
    ------------------------------------------------

 NO OUTPUT CONTROL FOR STRESS PERIOD    8   TIME STEP   27
 
 SOLVING FOR HEAD 
                                                   Max.-Head-Change                         Max.-Flux-Residual
  Residual-Control   Outer-Iter.   Inner-Iter.     Column Row Layer    Maximum-Head-Change  Column Row Layer    Maximum-Flux-Residual          L2-NORM 
          0                 1           2             4    7     1      -0.1316613110E+00       4    7    1        -0.6909592154E+01      0.1523251136E+02
          0                 2           2             4    7     1       0.1280673000E-01       4    7    1         0.6909373767E+00      0.1523230161E+01
          0                 3           2             4    7     1      -0.8720940167E-03       4    7    1        -0.4836584389E-01      0.1066263519E+00
          0                 4           1             4    7     1       0.3470142271E-04       4    7    1         0.1978164810E-02      0.4361022922E-02

    ------------------------------------------------
       NWT REQUIRED            4 OUTER ITERATIONS 
       AND A TOTAL OF          7 INNER ITERATIONS.
    ------------------------------------------------

 NO OUTPUT CONTROL FOR STRESS PERIOD    8   TIME STEP   28
 
 SOLVING FOR HEAD 
                                                   Max.-Head-Change                         Max.-Flux-Residual
  Residual-Control   Outer-Iter.   Inner-Iter.     Column Row Layer    Maximum-Head-Change  Column Row Layer    Maximum-Flux-Residual          L2-NORM 
          0                 1           2             4    7     1      -0.1303501385E+00       4    7    1        -0.6840828546E+01      0.1511051793E+02
          0                 2           2             4    7     1       0.1267919352E-01       4    7    1         0.6840613408E+00      0.1511031260E+01
          0                 3           2             4    7     1      -0.8634092076E-03       4    7    1        -0.4788451808E-01      0.1057724249E+00
          0                 4           1             4    7     1       0.3435584627E-04       4    7    1         0.1958478574E-02      0.4326097136E-02

    ------------------------------------------------
       NWT REQUIRED            4 OUTER ITERATIONS 
       AND A TOTAL OF          7 INNER ITERATIONS.
    ------------------------------------------------

 NO OUTPUT CONTROL FOR STRESS PERIOD    8   TIME STEP   29
 
 SOLVING FOR HEAD 
                                                   Max.-Head-Change                         Max.-Flux-Residual
  Residual-Control   Outer-Iter.   Inner-Iter.     Column Row Layer    Maximum-Head-Change  Column Row Layer    Maximum-Flux-Residual          L2-NORM 
          0                 1           2             4    7     1      -0.1290517636E+00       4    7    1        -0.6772702696E+01      0.1499158730E+02
          0                 2           2             4    7     1       0.1255290199E-01       4    7    1         0.6772490866E+00      0.1499138629E+01
          0                 3           2             4    7     1      -0.8548091741E-03       4    7    1        -0.4740765695E-01      0.1049399370E+00
          0                 4           1             4    7     1       0.3401364329E-04       4    7    1         0.1938974948E-02      0.4292048314E-02

    ------------------------------------------------
       NWT REQUIRED            4 OUTER ITERATIONS 
       AND A TOTAL OF          7 INNER ITERATIONS.
    ------------------------------------------------

 NO OUTPUT CONTROL FOR STRESS PERIOD    8   TIME STEP   30



 STREAM LISTING     PERIOD      8   STEP       30

 LAYER ROW COL. STREAM  RCH.  FLOW INTO     FLOW TO   FLOW OUT OF   OVRLND.     DIRECT     STREAM       STREAM     STREAM     STREAM   STREAMBED  STREAMBED
                SEG.NO.  NO.  STRM. RCH.    AQUIFER    STRM. RCH.    RUNOFF     PRECIP       ET          HEAD       DEPTH      WIDTH   CONDCTNC.   GRADIENT

   1    1    1     1     1    2.8125E+01  2.5915E-01   2.7866E+01  0.000E+00  0.000E+00  0.000E+00  1.09427E+03  1.223E+00  1.364E+01  6.137E-02  1.408E+00
   1    2    2     1     2    2.7866E+01  4.0087E-01   2.7465E+01  0.000E+00  0.000E+00  0.000E+00  1.08928E+03  1.218E+00  1.358E+01  9.503E-02  1.406E+00
   1    3    3     1     3    2.7465E+01  3.4142E-01   2.7123E+01  0.000E+00  0.000E+00  0.000E+00  1.08363E+03  1.213E+00  1.351E+01  8.103E-02  1.404E+00
   1    3    4     1     4    2.7123E+01  3.1403E-01   2.6809E+01  0.000E+00  0.000E+00  0.000E+00  1.07862E+03  1.209E+00  1.344E+01  7.461E-02  1.403E+00
   1    4    5     2     1    2.4809E+01  3.2739E-01   2.4482E+01  0.000E+00  0.000E+00  0.000E+00  1.07313E+03  1.197E+00  1.200E+01  7.800E-02  1.399E+00
   1    5    6     2     2    2.4482E+01  2.5133E-01   2.4231E+01  0.000E+00  0.000E+00  0.000E+00  1.06770E+03  1.189E+00  1.200E+01  6.000E-02  1.396E+00
   1    6    6     2     3    2.4231E+01  2.5089E-01   2.3980E+01  0.000E+00  0.000E+00  0.000E+00  1.06297E+03  1.181E+00  1.200E+01  6.000E-02  1.394E+00
   1    7    6     2     4    2.3980E+01  2.5044E-01   2.3729E+01  0.000E+00  0.000E+00  0.000E+00  1.05825E+03  1.174E+00  1.200E+01  6.000E-02  1.391E+00
   1    8    6     2     5    2.3729E+01  2.5000E-01   2.3479E+01  0.000E+00  0.000E+00  0.000E+00  1.05353E+03  1.167E+00  1.200E+01  6.000E-02  1.389E+00
   1    3    5     3     1    2.0000E+00  2.8252E-01   1.7175E+00  0.000E+00  0.000E+00  0.000E+00  1.07555E+03  1.909E+00  9.636E+00  7.227E-02  1.955E+00
   1    3    6     3     2    1.7175E+00  2.4905E-01   1.4684E+00  0.000E+00  0.000E+00  0.000E+00  1.07264E+03  1.727E+00  8.909E+00  6.682E-02  1.864E+00
   1    3    7     3     3    1.4684E+00  1.9718E-01   1.2712E+00  0.000E+00  0.000E+00  0.000E+00  1.06987E+03  1.555E+00  8.218E+00  5.547E-02  1.777E+00
   1    4    8     3     4    1.2712E+00  2.2567E-01   1.0456E+00  0.000E+00  0.000E+00  0.000E+00  1.06682E+03  1.364E+00  7.455E+00  6.709E-02  1.682E+00
   1    5    8     3     5    1.0456E+00  1.5790E-01   8.8768E-01  0.000E+00  0.000E+00  0.000E+00  1.06362E+03  1.164E+00  6.655E+00  4.991E-02  1.582E+00
   1    6    8     3     6    8.8768E-01  5.5980E-02   8.3170E-01  0.000E+00  0.000E+00  0.000E+00  1.06158E+03  1.036E+00  6.145E+00  1.844E-02  1.518E+00
   1    5   10     4     1    1.0000E+01  9.0919E-02   9.9091E+00  0.000E+00  0.000E+00  0.000E+00  1.07836E+03  6.368E-01  1.000E+01  2.500E-02  1.212E+00
   1    5    9     4     2    9.9091E+00  1.8158E-01   9.7275E+00  0.000E+00  0.000E+00  0.000E+00  1.07154E+03  6.315E-01  1.000E+01  5.000E-02  1.211E+00
   1    6    8     4     3    9.7275E+00  1.2689E-01   9.6006E+00  0.000E+00  0.000E+00  0.000E+00  1.06381E+03  6.256E-01  1.000E+01  3.500E-02  1.209E+00
   1    6    8     5     1    1.0432E+01  2.2686E-01   1.0205E+01  0.000E+00  0.000E+00  0.000E+00  1.05868E+03  6.790E-01  1.542E+01  6.166E-02  1.226E+00
   1    7    7     5     2    1.0205E+01  2.7894E-01   9.9265E+00  0.000E+00  0.000E+00  0.000E+00  1.05417E+03  6.732E-01  1.519E+01  7.594E-02  1.224E+00
   1    8    7     5     3    9.9265E+00  1.9221E-01   9.7343E+00  0.000E+00  0.000E+00  0.000E+00  1.04992E+03  6.676E-01  1.497E+01  5.241E-02  1.223E+00
   1    8    6     5     4    9.7343E+00  1.3577E-01   9.5985E+00  0.000E+00  0.000E+00  0.000E+00  1.04691E+03  6.637E-01  1.482E+01  3.706E-02  1.221E+00
   1    9    6     6     1    3.3078E+01  2.6646E-01   3.2811E+01  0.000E+00  0.000E+00  0.000E+00  1.04417E+03  1.441E+00  1.200E+01  6.000E-02  1.480E+00
   1   10    7     6     2    3.2811E+01  2.6604E-01   3.2545E+01  0.000E+00  0.000E+00  0.000E+00  1.03962E+03  1.434E+00  1.200E+01  6.000E-02  1.478E+00
   1   11    7     6     3    3.2545E+01  2.6561E-01   3.2280E+01  0.000E+00  0.000E+00  0.000E+00  1.03506E+03  1.427E+00  1.200E+01  6.000E-02  1.476E+00
   1   12    7     6     4    3.2280E+01  2.6519E-01   3.2015E+01  0.000E+00  0.000E+00  0.000E+00  1.03051E+03  1.420E+00  1.200E+01  6.000E-02  1.473E+00
   1   13    7     6     5    3.2015E+01  1.0520E-02   3.2004E+01  0.000E+00  0.000E+00  0.000E+00  1.02733E+03  1.416E+00  1.200E+01  2.400E-02  1.461E-01
   1   14    9     7     1    1.5000E+02  1.3681E+00   1.4863E+02  0.000E+00  0.000E+00  0.000E+00  1.03987E+03  2.288E+00  5.529E+01  5.593E-01  8.154E-01
   1   13    8     7     2    1.4863E+02  1.9110E+00   1.4672E+02  0.000E+00  0.000E+00  0.000E+00  1.03478E+03  2.279E+00  5.526E+01  6.148E-01  1.036E+00
   1   13    7     7     3    1.4672E+02  1.5647E+00   1.4516E+02  0.000E+00  0.000E+00  0.000E+00  1.02969E+03  2.270E+00  5.521E+01  5.584E-01  9.340E-01
   1   13    6     8     1    1.7716E+02  1.0292E+00   1.7613E+02  0.000E+00  0.000E+00  0.000E+00  1.02487E+03  2.995E+00  4.343E+01  4.425E-01  7.752E-01
   1   13    5     8     2    1.7613E+02  2.5213E-01   1.7588E+02  0.000E+00  0.000E+00  0.000E+00  1.01862E+03  2.991E+00  4.337E+01  4.419E-01  1.902E-01
   1   13    4     8     3    1.7588E+02 -2.2286E+00   1.7811E+02  0.000E+00  0.000E+00  0.000E+00  1.01237E+03  2.997E+00  4.346E+01  4.429E+00 -1.677E-01
   1   13    3     8     4    1.7811E+02 -3.5440E+00   1.8165E+02  0.000E+00  0.000E+00  0.000E+00  1.00614E+03  3.015E+00  4.372E+01  4.456E+00 -2.651E-01
   1   13    2     8     5    1.8165E+02 -2.5406E+00   1.8419E+02  0.000E+00  0.000E+00  0.000E+00  9.99909E+02  3.034E+00  4.400E+01  4.484E+00 -1.889E-01
   1   13    1     8     6    1.8419E+02 -1.9719E+00   1.8616E+02  0.000E+00  0.000E+00  0.000E+00  9.94923E+02  3.048E+00  4.420E+01  2.703E+00 -2.432E-01
   1    8    6     9     1    0.0000E+00  0.0000E+00   0.0000E+00  0.000E+00  0.000E+00  0.000E+00  1.07875E+03  0.000E+00  4.000E+00  0.000E+00  1.000E+00
   1    8    5     9     2    0.0000E+00  0.0000E+00   0.0000E+00  0.000E+00  0.000E+00  0.000E+00  1.07825E+03  0.000E+00  4.000E+00  0.000E+00  1.000E+00





UNSATURATED ZONE PACKAGE VOLUMETRIC BUDGET FOR  TIME STEP    30 STRESS PERIOD    8
  ------------------------------------------------------------------------------



     CUMULATIVE VOLUMES      L**3       RATES FOR THIS TIME STEP      L**3/T
     ------------------                 ------------------------

           IN:                                      IN:
           ---                                      ---
        INFILTRATION =   261923138.9910          INFILTRATION =          60.8175

          OUT:                                     OUT:
          ----                                     ----
              UZF ET =   261765555.6272                UZF ET =          60.8175
        UZF RECHARGE =       73224.0000          UZF RECHARGE =       0.0000E+00

            IN - OUT =       84359.3638              IN - OUT =       0.0000E+00

          STORAGE:                                 STORAGE:
          --------                                 --------
      STORAGE CHANGE =       84359.1881        STORAGE CHANGE =       2.0749E-17

 PERCENT DISCREPANCY IS DIFFERENCE BETWEEN IN-OUT MINUS CHANGE IN STORAGE
 DIVIDED BY THE AVERAGE OF IN AND OUT TIMES 100

 PERCENT DISCREPANCY =           0.00     PERCENT DISCREPANCY =           0.00






1
  VOLUMETRIC BUDGET FOR AGRICULTURAL FIELDS AT  END OF TIME STEP   30, STRESS PERIOD   8
  ------------------------------------------------------------------------------

     CUMULATIVE VOLUMES      L**3       RATES FOR THIS TIME STEP      L**3/T
     ------------------                 ------------------------

           IN:                                      IN:
           ---                                      ---
               AG WELLS  =   246247616.0000                 AG WELLS  =          59.9700
      DIVERSION SEGMENTS =           0.0000        DIVERSION SEGMENTS =           0.0000
       IRRIGATION PONDS  =           0.0000         IRRIGATION PONDS  =           0.0000
           GW IRRIGATION =           0.0000             GW IRRIGATION =           0.0000
           SW IRRIGATION =           0.0000             SW IRRIGATION =           0.0000
        SYSTEM LOSSES GW =           0.0000          SYSTEM LOSSES GW =           0.0000
        SYSTEM LOSSES SW =           0.0000          SYSTEM LOSSES SW =           0.0000

                TOTAL IN =   246247616.0000                  TOTAL IN =          59.9700

          OUT:                                     OUT:
          ----                                     ----
               AG WELLS  =           0.0000                 AG WELLS  =           0.0000
      DIVERSION SEGMENTS =           0.0000        DIVERSION SEGMENTS =           0.0000
       IRRIGATION PONDS  =           0.0000         IRRIGATION PONDS  =           0.0000
           GW IRRIGATION =   246247616.0000             GW IRRIGATION =          59.9700
           SW IRRIGATION =           0.0000             SW IRRIGATION =           0.0000
        SYSTEM LOSSES GW =           0.0000          SYSTEM LOSSES GW =           0.0000
        SYSTEM LOSSES SW =           0.0000          SYSTEM LOSSES SW =           0.0000

               TOTAL OUT =   246247616.0000                 TOTAL OUT =          59.9700

                IN - OUT =           0.0000                  IN - OUT =           0.0000

     PERCENT DISCREPANCY =           0.00         PERCENT DISCREPANCY =           0.00



1
  VOLUMETRIC BUDGET FOR ENTIRE MODEL AT END OF TIME STEP   30, STRESS PERIOD   8
  ------------------------------------------------------------------------------

     CUMULATIVE VOLUMES      L**3       RATES FOR THIS TIME STEP      L**3/T
     ------------------                 ------------------------

           IN:                                      IN:
           ---                                      ---
             STORAGE     =   243992448.0000               STORAGE     =          58.6433
       CONSTANT HEAD     =           0.0000         CONSTANT HEAD     =           0.0000
     HEAD DEP BOUNDS     =     5324777.0000       HEAD DEP BOUNDS     =           0.2880
      STREAM LEAKAGE     =   221432512.0000        STREAM LEAKAGE     =          12.2458
        UZF RECHARGE     =       73223.9531          UZF RECHARGE     =           0.0000
               GW ET     =           0.0000                 GW ET     =           0.0000
     SURFACE LEAKAGE     =           0.0000       SURFACE LEAKAGE     =           0.0000
           AG WELLS      =           0.0000             AG WELLS      =           0.0000

                TOTAL IN =   470822976.0000                  TOTAL IN =          71.1771

          OUT:                                     OUT:
          ----                                     ----
             STORAGE     =    31306178.0000               STORAGE     =           0.6314
       CONSTANT HEAD     =           0.0000         CONSTANT HEAD     =           0.0000
     HEAD DEP BOUNDS     =     5352609.0000       HEAD DEP BOUNDS     =           0.2908
      STREAM LEAKAGE     =   187918880.0000        STREAM LEAKAGE     =          10.2851
        UZF RECHARGE     =           0.0000          UZF RECHARGE     =           0.0000
               GW ET     =           0.0000                 GW ET     =           0.0000
     SURFACE LEAKAGE     =           0.0000       SURFACE LEAKAGE     =           0.0000
           AG WELLS      =   246247616.0000             AG WELLS      =          59.9700

               TOTAL OUT =   470825280.0000                 TOTAL OUT =          71.1773

                IN - OUT =       -2304.0000                  IN - OUT =      -2.0599E-04

     PERCENT DISCREPANCY =          -0.00         PERCENT DISCREPANCY =          -0.00






         TIME SUMMARY AT END OF TIME STEP   30 IN STRESS PERIOD    8
                    SECONDS     MINUTES      HOURS       DAYS        YEARS
                    -----------------------------------------------------------
   TIME STEP LENGTH  87667.      1461.1      24.352      1.0147     2.77799E-03
 STRESS PERIOD TIME 2.63000E+06  43833.      730.56      30.440     8.33397E-02
         TOTAL TIME 1.84964E+07 3.08274E+05  5137.9      214.08     0.58612    
1
1
                            STRESS PERIOD NO.    9, LENGTH =   2630000.    
                            -----------------------------------------------

                              NUMBER OF TIME STEPS =    30

                               MULTIPLIER FOR DELT =     1.000

                            INITIAL TIME STEP SIZE =   87666.66    

 REUSING NON-PARAMETER GHB CELLS FROM LAST STRESS PERIOD

      2 GHB CELLS

 REUSING STREAM SEGMENT DATA FROM LAST STRESS PERIOD



            AREAL INFILTRATION RATE
 READING ON UNIT   19 WITH FORMAT: (FREE)              

            1           2           3           4           5           6           7           8           9          10
 ........................................................................................................................
   1   1.0000E-10  2.0000E-10   0.000       0.000       0.000       0.000       0.000       0.000       0.000       0.000    
   2   2.0000E-10  1.0000E-10  2.0000E-10   0.000       0.000      8.0000E-10  8.0000E-10  5.0000E-10   0.000       0.000    
   3    0.000      5.0000E-10  1.0000E-10  1.0000E-10  8.0000E-10  8.0000E-10  5.0000E-10  5.0000E-10   0.000       0.000    
   4   8.0000E-10  5.0000E-10  1.0000E-10  1.0000E-10  1.0000E-10  1.0000E-10  1.0000E-10  1.0000E-10  2.0000E-10   0.000    
   5   8.0000E-10  5.0000E-10  1.0000E-10  1.0000E-10  1.0000E-10  1.0000E-10  1.0000E-10  1.0000E-10  1.0000E-10  1.0000E-10
   6   8.0000E-10  5.0000E-10  5.0000E-10  2.0000E-10  2.0000E-10  1.0000E-10  1.0000E-10  1.0000E-10  1.0000E-10  5.0000E-10
   7   8.0000E-10  5.0000E-10  5.0000E-10  2.0000E-10  2.0000E-10  1.0000E-10  1.0000E-10  2.0000E-10  2.0000E-10   0.000    
   8    0.000      5.0000E-10  5.0000E-10  2.0000E-10  2.0000E-10  1.0000E-10  1.0000E-10  2.0000E-10  5.0000E-10   0.000    
   9    0.000      5.0000E-10  5.0000E-10  2.0000E-10  2.0000E-10  1.0000E-10  1.0000E-10  2.0000E-10  5.0000E-10   0.000    
  10    0.000      5.0000E-10  5.0000E-10  2.0000E-10  2.0000E-10  1.0000E-10  1.0000E-10  2.0000E-10  5.0000E-10  8.0000E-10
  11    0.000      1.0000E-10  1.0000E-10  1.0000E-10  1.0000E-10  1.0000E-10  1.0000E-10  2.0000E-10  5.0000E-10   0.000    
  12   1.0000E-10  1.0000E-10  1.0000E-10  1.0000E-10  1.0000E-10  1.0000E-10  1.0000E-10  1.0000E-10  2.0000E-10   0.000    
  13   1.0000E-10  1.0000E-10  2.0000E-10  2.0000E-10  2.0000E-10  2.0000E-10  2.0000E-10  1.0000E-10  1.0000E-10   0.000    
  14    0.000      2.0000E-10  5.0000E-10  5.0000E-10  5.0000E-10  5.0000E-10  5.0000E-10  2.0000E-10  1.0000E-10   0.000    
  15    0.000       0.000      8.0000E-10  8.0000E-10  8.0000E-10  8.0000E-10   0.000       0.000       0.000       0.000    

                  ET RATE =  3.250000E-07

 USING ET EXTINCTION DEPTH FROM PREVIOUS STRESS PERIOD. CURRENT PERIOD IS:       9

 USING EXTINCTION WATER CONTENT FROM PREVIOUS STRESS PERIOD. CURRENT PERIOD IS:       9

 USING AIR ENTRY PRESSURE FROM PREVIOUS STRESS PERIOD. CURRENT PERIOD IS:       9

 USING ROOT PRESSURE HEAD FROM PREVIOUS STRESS PERIOD. CURRENT PERIOD IS:       9

 USING ROOT ACTIVITY FROM PREVIOUS STRESS PERIOD. CURRENT PERIOD IS:       9

 PROCESSING AG STRESS PERIOD DATA

 READING AG STRESS PERIOD DATA

 READING IRRIGATION SEGMENT

 READING IRRIGATION WELL

 READING SUPPLEMENTAL WELL

 NO IRRPOND OR REUSING IRRPOND DATA FROM LAST STRESS PERIOD

 END PROCESSING AG STRESS PERIOD DATA OPTIONS
 
 SOLVING FOR HEAD 
                                                   Max.-Head-Change                         Max.-Flux-Residual
  Residual-Control   Outer-Iter.   Inner-Iter.     Column Row Layer    Maximum-Head-Change  Column Row Layer    Maximum-Flux-Residual          L2-NORM 
          0                 1           2             4    7     1      -0.9185057668E-01       4    7    1        -0.4830233238E+01      0.1087739796E+02
          0                 2           2             4    7     1       0.8934363224E-02       4    7    1         0.4830102718E+00      0.1087720442E+01
          0                 3           2             4    7     1      -0.6083989033E-03       4    7    1        -0.3381085712E-01      0.7613965089E-01
          0                 4           1             4    7     1       0.2420875343E-04       4    7    1         0.1382865412E-02      0.3114053932E-02

    ------------------------------------------------
       NWT REQUIRED            4 OUTER ITERATIONS 
       AND A TOTAL OF          7 INNER ITERATIONS.
    ------------------------------------------------

 NO OUTPUT CONTROL FOR STRESS PERIOD    9   TIME STEP    1
 
 SOLVING FOR HEAD 
                                                   Max.-Head-Change                         Max.-Flux-Residual
  Residual-Control   Outer-Iter.   Inner-Iter.     Column Row Layer    Maximum-Head-Change  Column Row Layer    Maximum-Flux-Residual          L2-NORM 
          0                 1           2             4    7     1      -0.9076571001E-01       4    7    1        -0.4772341707E+01      0.1081292665E+02
          0                 2           2             4    7     1       0.8828818572E-02       4    7    1         0.4772215293E+00      0.1081261289E+01
          0                 3           2             4    7     1      -0.6012116438E-03       4    7    1        -0.3340564111E-01      0.7568755139E-01
          0                 4           1             4    7     1       0.2392276611E-04       4    7    1         0.1366292075E-02      0.3095571817E-02

    ------------------------------------------------
       NWT REQUIRED            4 OUTER ITERATIONS 
       AND A TOTAL OF          7 INNER ITERATIONS.
    ------------------------------------------------

 NO OUTPUT CONTROL FOR STRESS PERIOD    9   TIME STEP    2
 
 SOLVING FOR HEAD 
                                                   Max.-Head-Change                         Max.-Flux-Residual
  Residual-Control   Outer-Iter.   Inner-Iter.     Column Row Layer    Maximum-Head-Change  Column Row Layer    Maximum-Flux-Residual          L2-NORM 
          0                 1           2             4    7     1      -0.8970939285E-01       4    7    1        -0.4715974778E+01      0.1074950012E+02
          0                 2           2             4    7     1       0.8726096371E-02       4    7    1         0.4715852311E+00      0.1074933057E+01
          0                 3           2             4    7     1      -0.5942165861E-03       4    7    1        -0.3301109631E-01      0.7524463876E-01
          0                 4           1             4    7     1       0.2364442637E-04       4    7    1         0.1350155193E-02      0.3077409271E-02

    ------------------------------------------------
       NWT REQUIRED            4 OUTER ITERATIONS 
       AND A TOTAL OF          7 INNER ITERATIONS.
    ------------------------------------------------

 NO OUTPUT CONTROL FOR STRESS PERIOD    9   TIME STEP    3
 
 SOLVING FOR HEAD 
                                                   Max.-Head-Change                         Max.-Flux-Residual
  Residual-Control   Outer-Iter.   Inner-Iter.     Column Row Layer    Maximum-Head-Change  Column Row Layer    Maximum-Flux-Residual          L2-NORM 
          0                 1           2             4    7     1      -0.8868051012E-01       4    7    1        -0.4661085771E+01      0.1068751590E+02
          0                 2           2             4    7     1       0.8626019752E-02       4    7    1         0.4660967085E+00      0.1068785636E+01
          0                 3           2             4    7     1      -0.5874016849E-03       4    7    1        -0.3262689598E-01      0.7481445942E-01
          0                 4           1             4    7     1       0.2337325505E-04       4    7    1         0.1334441381E-02      0.3059860962E-02

    ------------------------------------------------
       NWT REQUIRED            4 OUTER ITERATIONS 
       AND A TOTAL OF          7 INNER ITERATIONS.
    ------------------------------------------------

 NO OUTPUT CONTROL FOR STRESS PERIOD    9   TIME STEP    4
 
 SOLVING FOR HEAD 
                                                   Max.-Head-Change                         Max.-Flux-Residual
  Residual-Control   Outer-Iter.   Inner-Iter.     Column Row Layer    Maximum-Head-Change  Column Row Layer    Maximum-Flux-Residual          L2-NORM 
          0                 1           2             4    7     1      -0.8767820693E-01       4    7    1        -0.4607627779E+01      0.1062682266E+02
          0                 2           2             4    7     1       0.8528528225E-02       4    7    1         0.4607512717E+00      0.1062667789E+01
          0                 3           2             4    7     1      -0.5807628213E-03       4    7    1        -0.3225271181E-01      0.7438630987E-01
          0                 4           1             4    7     1       0.2310908867E-04       4    7    1         0.1319137245E-02      0.3042368846E-02

    ------------------------------------------------
       NWT REQUIRED            4 OUTER ITERATIONS 
       AND A TOTAL OF          7 INNER ITERATIONS.
    ------------------------------------------------

 NO OUTPUT CONTROL FOR STRESS PERIOD    9   TIME STEP    5
 
 SOLVING FOR HEAD 
                                                   Max.-Head-Change                         Max.-Flux-Residual
  Residual-Control   Outer-Iter.   Inner-Iter.     Column Row Layer    Maximum-Head-Change  Column Row Layer    Maximum-Flux-Residual          L2-NORM 
          0                 1           2             4    7     1      -0.8670149431E-01       4    7    1        -0.4555548001E+01      0.1056737204E+02
          0                 2           2             4    7     1       0.8433525813E-02       4    7    1         0.4555436411E+00      0.1056723735E+01
          0                 3           2             4    7     1      -0.5742934597E-03       4    7    1        -0.3188817424E-01      0.7397030134E-01
          0                 4           1             4    7     1       0.2285166692E-04       4    7    1         0.1304227646E-02      0.3025354019E-02

    ------------------------------------------------
       NWT REQUIRED            4 OUTER ITERATIONS 
       AND A TOTAL OF          7 INNER ITERATIONS.
    ------------------------------------------------

 NO OUTPUT CONTROL FOR STRESS PERIOD    9   TIME STEP    6
 
 SOLVING FOR HEAD 
                                                   Max.-Head-Change                         Max.-Flux-Residual
  Residual-Control   Outer-Iter.   Inner-Iter.     Column Row Layer    Maximum-Head-Change  Column Row Layer    Maximum-Flux-Residual          L2-NORM 
          0                 1           2             4    7     1      -0.8574941788E-01       4    7    1        -0.4504795146E+01      0.1050912925E+02
          0                 2           2             4    7     1       0.8339971220E-02       4    7    1         0.4502711731E+00      0.1050884482E+01
          0                 3           2             4    7     1      -0.5679226212E-03       4    7    1        -0.3151909337E-01      0.7356162221E-01
          0                 4           1             4    7     1       0.2259816619E-04       4    7    1         0.1289132272E-02      0.3008647068E-02

    ------------------------------------------------
       NWT REQUIRED            4 OUTER ITERATIONS 
       AND A TOTAL OF          7 INNER ITERATIONS.
    ------------------------------------------------

 NO OUTPUT CONTROL FOR STRESS PERIOD    9   TIME STEP    7
 
 SOLVING FOR HEAD 
                                                   Max.-Head-Change                         Max.-Flux-Residual
  Residual-Control   Outer-Iter.   Inner-Iter.     Column Row Layer    Maximum-Head-Change  Column Row Layer    Maximum-Flux-Residual          L2-NORM 
          0                 1           2             4    7     1      -0.8484767427E-01       4    7    1        -0.4455384795E+01      0.1045205234E+02
          0                 2           2             4    7     1       0.8253215756E-02       4    7    1         0.4455284324E+00      0.1045229667E+01
          0                 3           2             4    7     1      -0.5620148563E-03       4    7    1        -0.3118709880E-01      0.7316582000E-01
          0                 4           1             4    7     1       0.2236309071E-04       4    7    1         0.1275553675E-02      0.2992464144E-02

    ------------------------------------------------
       NWT REQUIRED            4 OUTER ITERATIONS 
       AND A TOTAL OF          7 INNER ITERATIONS.
    ------------------------------------------------

 NO OUTPUT CONTROL FOR STRESS PERIOD    9   TIME STEP    8
 
 SOLVING FOR HEAD 
                                                   Max.-Head-Change                         Max.-Flux-Residual
  Residual-Control   Outer-Iter.   Inner-Iter.     Column Row Layer    Maximum-Head-Change  Column Row Layer    Maximum-Flux-Residual          L2-NORM 
          0                 1           2             4    7     1      -0.8396562079E-01       4    7    1        -0.4408468271E+01      0.1039615608E+02
          0                 2           2             4    7     1       0.8167419924E-02       4    7    1         0.4408370489E+00      0.1039604564E+01
          0                 3           2             4    7     1      -0.5561724395E-03       4    7    1        -0.3085869926E-01      0.7277211478E-01
          0                 4           1             4    7     1       0.2213061574E-04       4    7    1         0.1262122134E-02      0.2976361413E-02

    ------------------------------------------------
       NWT REQUIRED            4 OUTER ITERATIONS 
       AND A TOTAL OF          7 INNER ITERATIONS.
    ------------------------------------------------

 NO OUTPUT CONTROL FOR STRESS PERIOD    9   TIME STEP    9
 
 SOLVING FOR HEAD 
                                                   Max.-Head-Change                         Max.-Flux-Residual
  Residual-Control   Outer-Iter.   Inner-Iter.     Column Row Layer    Maximum-Head-Change  Column Row Layer    Maximum-Flux-Residual          L2-NORM 
          0                 1           2             4    7     1      -0.8310394831E-01       4    7    1        -0.4362645435E+01      0.1034130605E+02
          0                 2           2             4    7     1       0.8083606507E-02       4    7    1         0.4362550247E+00      0.1034116418E+01
          0                 3           2             4    7     1      -0.5504650191E-03       4    7    1        -0.3053795499E-01      0.7238800685E-01
          0                 4           1             4    7     1       0.2190351192E-04       4    7    1         0.1249003667E-02      0.2960664126E-02

    ------------------------------------------------
       NWT REQUIRED            4 OUTER ITERATIONS 
       AND A TOTAL OF          7 INNER ITERATIONS.
    ------------------------------------------------

 NO OUTPUT CONTROL FOR STRESS PERIOD    9   TIME STEP   10
 
 SOLVING FOR HEAD 
                                                   Max.-Head-Change                         Max.-Flux-Residual
  Residual-Control   Outer-Iter.   Inner-Iter.     Column Row Layer    Maximum-Head-Change  Column Row Layer    Maximum-Flux-Residual          L2-NORM 
          0                 1           2             4    7     1      -0.8226183269E-01       4    7    1        -0.4317872139E+01      0.1028748265E+02
          0                 2           2             4    7     1       0.8001695307E-02       4    7    1         0.4317779451E+00      0.1028738331E+01
          0                 3           2             4    7     1      -0.5448871341E-03       4    7    1        -0.3022455691E-01      0.7201155043E-01
          0                 4           1             4    7     1       0.2168156306E-04       4    7    1         0.1236185689E-02      0.2945251170E-02

    ------------------------------------------------
       NWT REQUIRED            4 OUTER ITERATIONS 
       AND A TOTAL OF          7 INNER ITERATIONS.
    ------------------------------------------------

 NO OUTPUT CONTROL FOR STRESS PERIOD    9   TIME STEP   11
 
 SOLVING FOR HEAD 
                                                   Max.-Head-Change                         Max.-Flux-Residual
  Residual-Control   Outer-Iter.   Inner-Iter.     Column Row Layer    Maximum-Head-Change  Column Row Layer    Maximum-Flux-Residual          L2-NORM 
          0                 1           2             4    7     1      -0.8143860968E-01       4    7    1        -0.4274112911E+01      0.1023465214E+02
          0                 2           2             4    7     1       0.7921621708E-02       4    7    1         0.4274022633E+00      0.1023455744E+01
          0                 3           2             4    7     1      -0.5394343843E-03       4    7    1        -0.2991825678E-01      0.7164180835E-01
          0                 4           1             4    7     1       0.2146459336E-04       4    7    1         0.1223658011E-02      0.2930142414E-02

    ------------------------------------------------
       NWT REQUIRED            4 OUTER ITERATIONS 
       AND A TOTAL OF          7 INNER ITERATIONS.
    ------------------------------------------------

 NO OUTPUT CONTROL FOR STRESS PERIOD    9   TIME STEP   12
 
 SOLVING FOR HEAD 
                                                   Max.-Head-Change                         Max.-Flux-Residual
  Residual-Control   Outer-Iter.   Inner-Iter.     Column Row Layer    Maximum-Head-Change  Column Row Layer    Maximum-Flux-Residual          L2-NORM 
          0                 1           2             4    7     1      -0.8063377064E-01       4    7    1        -0.4231340561E+01      0.1018278483E+02
          0                 2           2             4    7     1       0.7843336242E-02       4    7    1         0.4231252607E+00      0.1018269418E+01
          0                 3           2             4    7     1      -0.5341034007E-03       4    7    1        -0.2961886426E-01      0.7127878777E-01
          0                 4           1             4    7     1       0.2125246891E-04       4    7    1         0.1211412854E-02      0.2915301781E-02

    ------------------------------------------------
       NWT REQUIRED            4 OUTER ITERATIONS 
       AND A TOTAL OF          7 INNER ITERATIONS.
    ------------------------------------------------

 NO OUTPUT CONTROL FOR STRESS PERIOD    9   TIME STEP   13
 
 SOLVING FOR HEAD 
                                                   Max.-Head-Change                         Max.-Flux-Residual
  Residual-Control   Outer-Iter.   Inner-Iter.     Column Row Layer    Maximum-Head-Change  Column Row Layer    Maximum-Flux-Residual          L2-NORM 
          0                 1           2             4    7     1      -0.7984669137E-01       4    7    1        -0.4189521460E+01      0.1013184091E+02
          0                 2           2             4    7     1       0.7766778197E-02       4    7    1         0.4189435748E+00      0.1013175394E+01
          0                 3           2             4    7     1      -0.5288900494E-03       4    7    1        -0.2932614400E-01      0.7092222867E-01
          0                 4           1             4    7     1       0.2104502486E-04       4    7    1         0.1199440592E-02      0.2900715385E-02

    ------------------------------------------------
       NWT REQUIRED            4 OUTER ITERATIONS 
       AND A TOTAL OF          7 INNER ITERATIONS.
    ------------------------------------------------

 NO OUTPUT CONTROL FOR STRESS PERIOD    9   TIME STEP   14
 
 SOLVING FOR HEAD 
                                                   Max.-Head-Change                         Max.-Flux-Residual
  Residual-Control   Outer-Iter.   Inner-Iter.     Column Row Layer    Maximum-Head-Change  Column Row Layer    Maximum-Flux-Residual          L2-NORM 
          0                 1           2             4    7     1      -0.7907676752E-01       4    7    1        -0.4148623243E+01      0.1008179647E+02
          0                 2           2             4    7     1       0.7691888790E-02       4    7    1         0.4148539694E+00      0.1008171288E+01
          0                 3           2             4    7     1      -0.5237903270E-03       4    7    1        -0.2903986945E-01      0.7057195509E-01
          0                 4           1             4    7     1       0.2084210176E-04       4    7    1         0.1187731942E-02      0.2886395015E-02

    ------------------------------------------------
       NWT REQUIRED            4 OUTER ITERATIONS 
       AND A TOTAL OF          7 INNER ITERATIONS.
    ------------------------------------------------

 NO OUTPUT CONTROL FOR STRESS PERIOD    9   TIME STEP   15
 
 SOLVING FOR HEAD 
                                                   Max.-Head-Change                         Max.-Flux-Residual
  Residual-Control   Outer-Iter.   Inner-Iter.     Column Row Layer    Maximum-Head-Change  Column Row Layer    Maximum-Flux-Residual          L2-NORM 
          0                 1           2             4    7     1      -0.7832355037E-01       4    7    1        -0.4108621823E+01      0.1003261963E+02
          0                 2           2             4    7     1       0.7618624377E-02       4    7    1         0.4108540361E+00      0.1003253891E+01
          0                 3           2             4    7     1      -0.5188012619E-03       4    7    1        -0.2875987201E-01      0.7022774922E-01
          0                 4           1             4    7     1       0.2064358287E-04       4    7    1         0.1176280048E-02      0.2872313681E-02

    ------------------------------------------------
       NWT REQUIRED            4 OUTER ITERATIONS 
       AND A TOTAL OF          7 INNER ITERATIONS.
    ------------------------------------------------

 NO OUTPUT CONTROL FOR STRESS PERIOD    9   TIME STEP   16
 
 SOLVING FOR HEAD 
                                                   Max.-Head-Change                         Max.-Flux-Residual
  Residual-Control   Outer-Iter.   Inner-Iter.     Column Row Layer    Maximum-Head-Change  Column Row Layer    Maximum-Flux-Residual          L2-NORM 
          0                 1           2             4    7     1      -0.7758646957E-01       4    7    1        -0.4069486681E+01      0.9984285458E+01
          0                 2           2             4    7     1       0.7546929484E-02       4    7    1         0.4069407232E+00      0.9984207513E+00
          0                 3           2             4    7     1      -0.5139190765E-03       4    7    1        -0.2848593811E-01      0.6988944076E-01
          0                 4           1             4    7     1       0.2044931598E-04       4    7    1         0.1165076134E-02      0.2858471287E-02

    ------------------------------------------------
       NWT REQUIRED            4 OUTER ITERATIONS 
       AND A TOTAL OF          7 INNER ITERATIONS.
    ------------------------------------------------

 NO OUTPUT CONTROL FOR STRESS PERIOD    9   TIME STEP   17
 
 SOLVING FOR HEAD 
                                                   Max.-Head-Change                         Max.-Flux-Residual
  Residual-Control   Outer-Iter.   Inner-Iter.     Column Row Layer    Maximum-Head-Change  Column Row Layer    Maximum-Flux-Residual          L2-NORM 
          0                 1           2             4    7     1      -0.7686484468E-01       4    7    1        -0.4031180997E+01      0.9936765627E+01
          0                 2           2             4    7     1       0.7476737927E-02       4    7    1         0.4031103492E+00      0.9936690181E+00
          0                 3           2             4    7     1      -0.5091392640E-03       4    7    1        -0.2821780998E-01      0.6955681667E-01
          0                 4           1             4    7     1       0.2025912288E-04       4    7    1         0.1154109698E-02      0.2844862506E-02

    ------------------------------------------------
       NWT REQUIRED            4 OUTER ITERATIONS 
       AND A TOTAL OF          7 INNER ITERATIONS.
    ------------------------------------------------

 NO OUTPUT CONTROL FOR STRESS PERIOD    9   TIME STEP   18
 
 SOLVING FOR HEAD 
                                                   Max.-Head-Change                         Max.-Flux-Residual
  Residual-Control   Outer-Iter.   Inner-Iter.     Column Row Layer    Maximum-Head-Change  Column Row Layer    Maximum-Flux-Residual          L2-NORM 
          0                 1           2             4    7     1      -0.7615842634E-01       4    7    1        -0.3993691231E+01      0.9890051543E+01
          0                 2           2             4    7     1       0.7408027174E-02       4    7    1         0.3993615603E+00      0.9890905669E+00
          0                 3           2             4    7     1      -0.5044602891E-03       4    7    1        -0.2795539285E-01      0.6923634544E-01
          0                 4           1             4    7     1       0.2007294232E-04       4    7    1         0.1143376825E-02      0.2831762623E-02

    ------------------------------------------------
       NWT REQUIRED            4 OUTER ITERATIONS 
       AND A TOTAL OF          7 INNER ITERATIONS.
    ------------------------------------------------

 NO OUTPUT CONTROL FOR STRESS PERIOD    9   TIME STEP   19
 
 SOLVING FOR HEAD 
                                                   Max.-Head-Change                         Max.-Flux-Residual
  Residual-Control   Outer-Iter.   Inner-Iter.     Column Row Layer    Maximum-Head-Change  Column Row Layer    Maximum-Flux-Residual          L2-NORM 
          0                 1           2             4    7     1      -0.7546669170E-01       4    7    1        -0.3956989865E+01      0.9844039318E+01
          0                 2           2             4    7     1       0.7340741210E-02       4    7    1         0.3956916048E+00      0.9843969607E+00
          0                 3           2             4    7     1      -0.4998783388E-03       4    7    1        -0.2769849417E-01      0.6890780372E-01
          0                 4           1             4    7     1       0.1989062246E-04       4    7    1         0.1132869673E-02      0.2818330134E-02

    ------------------------------------------------
       NWT REQUIRED            4 OUTER ITERATIONS 
       AND A TOTAL OF          7 INNER ITERATIONS.
    ------------------------------------------------

 NO OUTPUT CONTROL FOR STRESS PERIOD    9   TIME STEP   20
 
 SOLVING FOR HEAD 
                                                   Max.-Head-Change                         Max.-Flux-Residual
  Residual-Control   Outer-Iter.   Inner-Iter.     Column Row Layer    Maximum-Head-Change  Column Row Layer    Maximum-Flux-Residual          L2-NORM 
          0                 1           2             4    7     1      -0.7478902287E-01       4    7    1        -0.3921042820E+01      0.9798754676E+01
          0                 2           2             4    7     1       0.7274825095E-02       4    7    1         0.3920970752E+00      0.9798686931E+00
          0                 3           2             4    7     1      -0.4953896700E-03       4    7    1        -0.2744687531E-01      0.6859083268E-01
          0                 4           1             4    7     1       0.1971201384E-04       4    7    1         0.1122578449E-02      0.2805365152E-02

    ------------------------------------------------
       NWT REQUIRED            4 OUTER ITERATIONS 
       AND A TOTAL OF          7 INNER ITERATIONS.
    ------------------------------------------------

 NO OUTPUT CONTROL FOR STRESS PERIOD    9   TIME STEP   21
 
 SOLVING FOR HEAD 
                                                   Max.-Head-Change                         Max.-Flux-Residual
  Residual-Control   Outer-Iter.   Inner-Iter.     Column Row Layer    Maximum-Head-Change  Column Row Layer    Maximum-Flux-Residual          L2-NORM 
          0                 1           2             4    7     1      -0.7412494591E-01       4    7    1        -0.3885825029E+01      0.9754201407E+01
          0                 2           2             4    7     1       0.7210231011E-02       4    7    1         0.3885754653E+00      0.9754135399E+00
          0                 3           2             4    7     1      -0.4909910281E-03       4    7    1        -0.2720036091E-01      0.6827897539E-01
          0                 4           1             4    7     1       0.1953698800E-04       4    7    1         0.1112496008E-02      0.2792610611E-02

    ------------------------------------------------
       NWT REQUIRED            4 OUTER ITERATIONS 
       AND A TOTAL OF          7 INNER ITERATIONS.
    ------------------------------------------------

 NO OUTPUT CONTROL FOR STRESS PERIOD    9   TIME STEP   22
 
 SOLVING FOR HEAD 
                                                   Max.-Head-Change                         Max.-Flux-Residual
  Residual-Control   Outer-Iter.   Inner-Iter.     Column Row Layer    Maximum-Head-Change  Column Row Layer    Maximum-Flux-Residual          L2-NORM 
          0                 1           2             4    7     1      -0.7347441203E-01       4    7    1        -0.3851333732E+01      0.9710381035E+01
          0                 2           2             4    7     1       0.7146954215E-02       4    7    1         0.3851264989E+00      0.9710316720E+00
          0                 3           2             4    7     1      -0.4866820890E-03       4    7    1        -0.2695893161E-01      0.6797225099E-01
          0                 4           1             4    7     1       0.1936553146E-04       4    7    1         0.1102621528E-02      0.2780061473E-02

    ------------------------------------------------
       NWT REQUIRED            4 OUTER ITERATIONS 
       AND A TOTAL OF          7 INNER ITERATIONS.
    ------------------------------------------------

 NO OUTPUT CONTROL FOR STRESS PERIOD    9   TIME STEP   23
 
 SOLVING FOR HEAD 
                                                   Max.-Head-Change                         Max.-Flux-Residual
  Residual-Control   Outer-Iter.   Inner-Iter.     Column Row Layer    Maximum-Head-Change  Column Row Layer    Maximum-Flux-Residual          L2-NORM 
          0                 1           2             4    7     1      -0.7283657159E-01       4    7    1        -0.3817522950E+01      0.9667263745E+01
          0                 2           2             4    7     1       0.7084912066E-02       4    7    1         0.3817455786E+00      0.9667200870E+00
          0                 3           2             4    7     1      -0.4824572260E-03       4    7    1        -0.2672226560E-01      0.6767044339E-01
          0                 4           1             4    7     1       0.1919742029E-04       4    7    1         0.1092941888E-02      0.2767723464E-02

    ------------------------------------------------
       NWT REQUIRED            4 OUTER ITERATIONS 
       AND A TOTAL OF          7 INNER ITERATIONS.
    ------------------------------------------------

 NO OUTPUT CONTROL FOR STRESS PERIOD    9   TIME STEP   24
 
 SOLVING FOR HEAD 
                                                   Max.-Head-Change                         Max.-Flux-Residual
  Residual-Control   Outer-Iter.   Inner-Iter.     Column Row Layer    Maximum-Head-Change  Column Row Layer    Maximum-Flux-Residual          L2-NORM 
          0                 1           2             4    7     1      -0.7221127577E-01       4    7    1        -0.3784384832E+01      0.9624831245E+01
          0                 2           2             4    7     1       0.7024090088E-02       4    7    1         0.3784319195E+00      0.9624769832E+00
          0                 3           2             4    7     1      -0.4783154529E-03       4    7    1        -0.2649030792E-01      0.6737342884E-01
          0                 4           1             4    7     1       0.1903261548E-04       4    7    1         0.1083454816E-02      0.2755574337E-02

    ------------------------------------------------
       NWT REQUIRED            4 OUTER ITERATIONS 
       AND A TOTAL OF          7 INNER ITERATIONS.
    ------------------------------------------------

 NO OUTPUT CONTROL FOR STRESS PERIOD    9   TIME STEP   25
 
 SOLVING FOR HEAD 
                                                   Max.-Head-Change                         Max.-Flux-Residual
  Residual-Control   Outer-Iter.   Inner-Iter.     Column Row Layer    Maximum-Head-Change  Column Row Layer    Maximum-Flux-Residual          L2-NORM 
          0                 1           2             4    7     1      -0.7159798257E-01       4    7    1        -0.3751889941E+01      0.9583070956E+01
          0                 2           2             4    7     1       0.6964435566E-02       4    7    1         0.3751825781E+00      0.9583010814E+00
          0                 3           2             4    7     1      -0.4742531796E-03       4    7    1        -0.2626285252E-01      0.6708112123E-01
          0                 4           1             4    7     1       0.1887097402E-04       4    7    1         0.1074151883E-02      0.2743620076E-02

    ------------------------------------------------
       NWT REQUIRED            4 OUTER ITERATIONS 
       AND A TOTAL OF          7 INNER ITERATIONS.
    ------------------------------------------------

 NO OUTPUT CONTROL FOR STRESS PERIOD    9   TIME STEP   26
 
 SOLVING FOR HEAD 
                                                   Max.-Head-Change                         Max.-Flux-Residual
  Residual-Control   Outer-Iter.   Inner-Iter.     Column Row Layer    Maximum-Head-Change  Column Row Layer    Maximum-Flux-Residual          L2-NORM 
          0                 1           2             4    7     1      -0.7099657428E-01       4    7    1        -0.3720031888E+01      0.9541970356E+01
          0                 2           2             4    7     1       0.6905937050E-02       4    7    1         0.3719969158E+00      0.9541911553E+00
          0                 3           2             4    7     1      -0.4702696264E-03       4    7    1        -0.2603985469E-01      0.6679343124E-01
          0                 4           1             4    7     1       0.1871246462E-04       4    7    1         0.1065031257E-02      0.2731856821E-02

    ------------------------------------------------
       NWT REQUIRED            4 OUTER ITERATIONS 
       AND A TOTAL OF          7 INNER ITERATIONS.
    ------------------------------------------------

 NO OUTPUT CONTROL FOR STRESS PERIOD    9   TIME STEP   27
 
 SOLVING FOR HEAD 
                                                   Max.-Head-Change                         Max.-Flux-Residual
  Residual-Control   Outer-Iter.   Inner-Iter.     Column Row Layer    Maximum-Head-Change  Column Row Layer    Maximum-Flux-Residual          L2-NORM 
          0                 1           2             4    7     1      -0.7040639973E-01       4    7    1        -0.3688775621E+01      0.9501505675E+01
          0                 2           2             4    7     1       0.6848531204E-02       4    7    1         0.3688714274E+00      0.9501448018E+00
          0                 3           2             4    7     1      -0.4663604813E-03       4    7    1        -0.2582106911E-01      0.6651018696E-01
          0                 4           1             4    7     1       0.1855691641E-04       4    7    1         0.1056082925E-02      0.2720269214E-02

    ------------------------------------------------
       NWT REQUIRED            4 OUTER ITERATIONS 
       AND A TOTAL OF          7 INNER ITERATIONS.
    ------------------------------------------------

 NO OUTPUT CONTROL FOR STRESS PERIOD    9   TIME STEP   28
 
 SOLVING FOR HEAD 
                                                   Max.-Head-Change                         Max.-Flux-Residual
  Residual-Control   Outer-Iter.   Inner-Iter.     Column Row Layer    Maximum-Head-Change  Column Row Layer    Maximum-Flux-Residual          L2-NORM 
          0                 1           2             4    7     1      -0.6982737088E-01       4    7    1        -0.3658116320E+01      0.9461669571E+01
          0                 2           2             4    7     1       0.6792209465E-02       4    7    1         0.3658056311E+00      0.9461613093E+00
          0                 3           2             4    7     1      -0.4625251607E-03       4    7    1        -0.2560646202E-01      0.6623134300E-01
          0                 4           1             4    7     1       0.1840430545E-04       4    7    1         0.1047305492E-02      0.2708860688E-02

    ------------------------------------------------
       NWT REQUIRED            4 OUTER ITERATIONS 
       AND A TOTAL OF          7 INNER ITERATIONS.
    ------------------------------------------------

 NO OUTPUT CONTROL FOR STRESS PERIOD    9   TIME STEP   29
 
 SOLVING FOR HEAD 
                                                   Max.-Head-Change                         Max.-Flux-Residual
  Residual-Control   Outer-Iter.   Inner-Iter.     Column Row Layer    Maximum-Head-Change  Column Row Layer    Maximum-Flux-Residual          L2-NORM 
          0                 1           2             4    7     1      -0.6925900302E-01       4    7    1        -0.3628027714E+01      0.9422448352E+01
          0                 2           2             4    7     1       0.6736924689E-02       4    7    1         0.3627969001E+00      0.9422392900E+00
          0                 3           2             4    7     1      -0.4587604536E-03       4    7    1        -0.2539584953E-01      0.6595679888E-01
          0                 4           1             4    7     1       0.1825450452E-04       4    7    1         0.1038691440E-02      0.2697633515E-02

    ------------------------------------------------
       NWT REQUIRED            4 OUTER ITERATIONS 
       AND A TOTAL OF          7 INNER ITERATIONS.
    ------------------------------------------------

 NO OUTPUT CONTROL FOR STRESS PERIOD    9   TIME STEP   30



 STREAM LISTING     PERIOD      9   STEP       30

 LAYER ROW COL. STREAM  RCH.  FLOW INTO     FLOW TO   FLOW OUT OF   OVRLND.     DIRECT     STREAM       STREAM     STREAM     STREAM   STREAMBED  STREAMBED
                SEG.NO.  NO.  STRM. RCH.    AQUIFER    STRM. RCH.    RUNOFF     PRECIP       ET          HEAD       DEPTH      WIDTH   CONDCTNC.   GRADIENT

   1    1    1     1     1    2.2875E+01  2.3514E-01   2.2640E+01  0.000E+00  0.000E+00  0.000E+00  1.09419E+03  1.146E+00  1.260E+01  5.672E-02  1.382E+00
   1    2    2     1     2    2.2640E+01  3.6351E-01   2.2276E+01  0.000E+00  0.000E+00  0.000E+00  1.08920E+03  1.141E+00  1.254E+01  8.778E-02  1.380E+00
   1    3    3     1     3    2.2276E+01  3.0939E-01   2.1967E+01  0.000E+00  0.000E+00  0.000E+00  1.08355E+03  1.136E+00  1.247E+01  7.481E-02  1.379E+00
   1    3    4     1     4    2.1967E+01  2.8439E-01   2.1682E+01  0.000E+00  0.000E+00  0.000E+00  1.07854E+03  1.131E+00  1.240E+01  6.885E-02  1.377E+00
   1    4    5     2     1    1.9682E+01  3.1521E-01   1.9367E+01  0.000E+00  0.000E+00  0.000E+00  1.07298E+03  1.041E+00  1.200E+01  7.800E-02  1.347E+00
   1    5    6     2     2    1.9367E+01  2.4193E-01   1.9125E+01  0.000E+00  0.000E+00  0.000E+00  1.06754E+03  1.032E+00  1.200E+01  6.000E-02  1.344E+00
   1    6    6     2     3    1.9125E+01  2.4146E-01   1.8884E+01  0.000E+00  0.000E+00  0.000E+00  1.06282E+03  1.024E+00  1.200E+01  6.000E-02  1.341E+00
   1    7    6     2     4    1.8884E+01  2.4099E-01   1.8643E+01  0.000E+00  0.000E+00  0.000E+00  1.05809E+03  1.017E+00  1.200E+01  6.000E-02  1.339E+00
   1    8    6     2     5    1.8643E+01  2.4052E-01   1.8402E+01  0.000E+00  0.000E+00  0.000E+00  1.05337E+03  1.009E+00  1.200E+01  6.000E-02  1.336E+00
   1    3    5     3     1    2.0000E+00  2.8252E-01   1.7175E+00  0.000E+00  0.000E+00  0.000E+00  1.07555E+03  1.909E+00  9.636E+00  7.227E-02  1.955E+00
   1    3    6     3     2    1.7175E+00  2.4905E-01   1.4684E+00  0.000E+00  0.000E+00  0.000E+00  1.07264E+03  1.727E+00  8.909E+00  6.682E-02  1.864E+00
   1    3    7     3     3    1.4684E+00  1.9718E-01   1.2712E+00  0.000E+00  0.000E+00  0.000E+00  1.06987E+03  1.555E+00  8.218E+00  5.547E-02  1.777E+00
   1    4    8     3     4    1.2712E+00  2.2567E-01   1.0456E+00  0.000E+00  0.000E+00  0.000E+00  1.06682E+03  1.364E+00  7.455E+00  6.709E-02  1.682E+00
   1    5    8     3     5    1.0456E+00  1.5790E-01   8.8768E-01  0.000E+00  0.000E+00  0.000E+00  1.06362E+03  1.164E+00  6.655E+00  4.991E-02  1.582E+00
   1    6    8     3     6    8.8768E-01  5.5980E-02   8.3170E-01  0.000E+00  0.000E+00  0.000E+00  1.06158E+03  1.036E+00  6.145E+00  1.844E-02  1.518E+00
   1    5   10     4     1    1.0000E+01  9.0919E-02   9.9091E+00  0.000E+00  0.000E+00  0.000E+00  1.07836E+03  6.368E-01  1.000E+01  2.500E-02  1.212E+00
   1    5    9     4     2    9.9091E+00  1.8158E-01   9.7275E+00  0.000E+00  0.000E+00  0.000E+00  1.07154E+03  6.315E-01  1.000E+01  5.000E-02  1.211E+00
   1    6    8     4     3    9.7275E+00  1.2689E-01   9.6006E+00  0.000E+00  0.000E+00  0.000E+00  1.06381E+03  6.256E-01  1.000E+01  3.500E-02  1.209E+00
   1    6    8     5     1    1.0432E+01  2.2686E-01   1.0205E+01  0.000E+00  0.000E+00  0.000E+00  1.05868E+03  6.790E-01  1.542E+01  6.166E-02  1.226E+00
   1    7    7     5     2    1.0205E+01  2.7894E-01   9.9265E+00  0.000E+00  0.000E+00  0.000E+00  1.05417E+03  6.732E-01  1.519E+01  7.594E-02  1.224E+00
   1    8    7     5     3    9.9265E+00  1.9221E-01   9.7343E+00  0.000E+00  0.000E+00  0.000E+00  1.04992E+03  6.676E-01  1.497E+01  5.241E-02  1.223E+00
   1    8    6     5     4    9.7343E+00  1.3577E-01   9.5985E+00  0.000E+00  0.000E+00  0.000E+00  1.04691E+03  6.637E-01  1.482E+01  3.706E-02  1.221E+00
   1    9    6     6     1    2.8001E+01  2.5820E-01   2.7743E+01  0.000E+00  0.000E+00  0.000E+00  1.04403E+03  1.303E+00  1.200E+01  6.000E-02  1.434E+00
   1   10    7     6     2    2.7743E+01  2.5777E-01   2.7485E+01  0.000E+00  0.000E+00  0.000E+00  1.03948E+03  1.296E+00  1.200E+01  6.000E-02  1.432E+00
   1   11    7     6     3    2.7485E+01  2.5733E-01   2.7228E+01  0.000E+00  0.000E+00  0.000E+00  1.03493E+03  1.289E+00  1.200E+01  6.000E-02  1.430E+00
   1   12    7     6     4    2.7228E+01  2.5689E-01   2.6971E+01  0.000E+00  0.000E+00  0.000E+00  1.03037E+03  1.282E+00  1.200E+01  6.000E-02  1.427E+00
   1   13    7     6     5    2.6971E+01  7.1851E-03   2.6963E+01  0.000E+00  0.000E+00  0.000E+00  1.02719E+03  1.278E+00  1.200E+01  2.400E-02  9.979E-02
   1   14    9     7     1    1.5000E+02  1.3682E+00   1.4863E+02  0.000E+00  0.000E+00  0.000E+00  1.03987E+03  2.288E+00  5.529E+01  5.593E-01  8.154E-01
   1   13    8     7     2    1.4863E+02  1.9099E+00   1.4672E+02  0.000E+00  0.000E+00  0.000E+00  1.03478E+03  2.279E+00  5.526E+01  6.148E-01  1.036E+00
   1   13    7     7     3    1.4672E+02  1.5644E+00   1.4516E+02  0.000E+00  0.000E+00  0.000E+00  1.02969E+03  2.270E+00  5.521E+01  5.584E-01  9.338E-01
   1   13    6     8     1    1.7212E+02  1.0076E+00   1.7111E+02  0.000E+00  0.000E+00  0.000E+00  1.02484E+03  2.963E+00  4.296E+01  4.378E-01  7.672E-01
   1   13    5     8     2    1.7111E+02  2.4062E-01   1.7087E+02  0.000E+00  0.000E+00  0.000E+00  1.01858E+03  2.959E+00  4.290E+01  4.372E-01  1.835E-01
   1   13    4     8     3    1.7087E+02 -2.2493E+00   1.7312E+02  0.000E+00  0.000E+00  0.000E+00  1.01234E+03  2.965E+00  4.299E+01  4.381E+00 -1.711E-01
   1   13    3     8     4    1.7312E+02 -3.5582E+00   1.7668E+02  0.000E+00  0.000E+00  0.000E+00  1.00611E+03  2.984E+00  4.327E+01  4.409E+00 -2.690E-01
   1   13    2     8     5    1.7668E+02 -2.5527E+00   1.7923E+02  0.000E+00  0.000E+00  0.000E+00  9.99878E+02  3.003E+00  4.355E+01  4.438E+00 -1.917E-01
   1   13    1     8     6    1.7923E+02 -1.9818E+00   1.8121E+02  0.000E+00  0.000E+00  0.000E+00  9.94893E+02  3.018E+00  4.375E+01  2.675E+00 -2.469E-01
   1    8    6     9     1    0.0000E+00  0.0000E+00   0.0000E+00  0.000E+00  0.000E+00  0.000E+00  1.07875E+03  0.000E+00  4.000E+00  0.000E+00  1.000E+00
   1    8    5     9     2    0.0000E+00  0.0000E+00   0.0000E+00  0.000E+00  0.000E+00  0.000E+00  1.07825E+03  0.000E+00  4.000E+00  0.000E+00  1.000E+00





UNSATURATED ZONE PACKAGE VOLUMETRIC BUDGET FOR  TIME STEP    30 STRESS PERIOD    9
  ------------------------------------------------------------------------------



     CUMULATIVE VOLUMES      L**3       RATES FOR THIS TIME STEP      L**3/T
     ------------------                 ------------------------

           IN:                                      IN:
           ---                                      ---
        INFILTRATION =   392285656.3674          INFILTRATION =          49.5675

          OUT:                                     OUT:
          ----                                     ----
              UZF ET =   392128073.0036                UZF ET =          49.5675
        UZF RECHARGE =       73224.0000          UZF RECHARGE =       0.0000E+00

            IN - OUT =       84359.3638              IN - OUT =       0.0000E+00

          STORAGE:                                 STORAGE:
          --------                                 --------
      STORAGE CHANGE =       84359.1881        STORAGE CHANGE =       4.1498E-17

 PERCENT DISCREPANCY IS DIFFERENCE BETWEEN IN-OUT MINUS CHANGE IN STORAGE
 DIVIDED BY THE AVERAGE OF IN AND OUT TIMES 100

 PERCENT DISCREPANCY =           0.00     PERCENT DISCREPANCY =           0.00






1
  VOLUMETRIC BUDGET FOR AGRICULTURAL FIELDS AT  END OF TIME STEP   30, STRESS PERIOD   9
  ------------------------------------------------------------------------------

     CUMULATIVE VOLUMES      L**3       RATES FOR THIS TIME STEP      L**3/T
     ------------------                 ------------------------

           IN:                                      IN:
           ---                                      ---
               AG WELLS  =   374380864.0000                 AG WELLS  =          48.7200
      DIVERSION SEGMENTS =           0.0000        DIVERSION SEGMENTS =           0.0000
       IRRIGATION PONDS  =           0.0000         IRRIGATION PONDS  =           0.0000
           GW IRRIGATION =           0.0000             GW IRRIGATION =           0.0000
           SW IRRIGATION =           0.0000             SW IRRIGATION =           0.0000
        SYSTEM LOSSES GW =           0.0000          SYSTEM LOSSES GW =           0.0000
        SYSTEM LOSSES SW =           0.0000          SYSTEM LOSSES SW =           0.0000

                TOTAL IN =   374380864.0000                  TOTAL IN =          48.7200

          OUT:                                     OUT:
          ----                                     ----
               AG WELLS  =           0.0000                 AG WELLS  =           0.0000
      DIVERSION SEGMENTS =           0.0000        DIVERSION SEGMENTS =           0.0000
       IRRIGATION PONDS  =           0.0000         IRRIGATION PONDS  =           0.0000
           GW IRRIGATION =   374380864.0000             GW IRRIGATION =          48.7200
           SW IRRIGATION =           0.0000             SW IRRIGATION =           0.0000
        SYSTEM LOSSES GW =           0.0000          SYSTEM LOSSES GW =           0.0000
        SYSTEM LOSSES SW =           0.0000          SYSTEM LOSSES SW =           0.0000

               TOTAL OUT =   374380864.0000                 TOTAL OUT =          48.7200

                IN - OUT =           0.0000                  IN - OUT =           0.0000

     PERCENT DISCREPANCY =           0.00         PERCENT DISCREPANCY =           0.00



1
  VOLUMETRIC BUDGET FOR ENTIRE MODEL AT END OF TIME STEP   30, STRESS PERIOD   9
  ------------------------------------------------------------------------------

     CUMULATIVE VOLUMES      L**3       RATES FOR THIS TIME STEP      L**3/T
     ------------------                 ------------------------

           IN:                                      IN:
           ---                                      ---
             STORAGE     =   369291008.0000               STORAGE     =          47.5067
       CONSTANT HEAD     =           0.0000         CONSTANT HEAD     =           0.0000
     HEAD DEP BOUNDS     =     6082115.0000       HEAD DEP BOUNDS     =           0.2880
      STREAM LEAKAGE     =   252988720.0000        STREAM LEAKAGE     =          12.0020
        UZF RECHARGE     =       73223.9531          UZF RECHARGE     =           0.0000
               GW ET     =           0.0000                 GW ET     =           0.0000
     SURFACE LEAKAGE     =           0.0000       SURFACE LEAKAGE     =           0.0000
           AG WELLS      =           0.0000             AG WELLS      =           0.0000

                TOTAL IN =   628435072.0000                  TOTAL IN =          59.7967

          OUT:                                     OUT:
          ----                                     ----
             STORAGE     =    32550710.0000               STORAGE     =           0.4448
       CONSTANT HEAD     =           0.0000         CONSTANT HEAD     =           0.0000
     HEAD DEP BOUNDS     =     6116228.0000       HEAD DEP BOUNDS     =           0.2901
      STREAM LEAKAGE     =   215389664.0000        STREAM LEAKAGE     =          10.3420
        UZF RECHARGE     =           0.0000          UZF RECHARGE     =           0.0000
               GW ET     =           0.0000                 GW ET     =           0.0000
     SURFACE LEAKAGE     =           0.0000       SURFACE LEAKAGE     =           0.0000
           AG WELLS      =   374380864.0000             AG WELLS      =          48.7200

               TOTAL OUT =   628437504.0000                 TOTAL OUT =          59.7969

                IN - OUT =       -2432.0000                  IN - OUT =      -1.6785E-04

     PERCENT DISCREPANCY =          -0.00         PERCENT DISCREPANCY =          -0.00






         TIME SUMMARY AT END OF TIME STEP   30 IN STRESS PERIOD    9
                    SECONDS     MINUTES      HOURS       DAYS        YEARS
                    -----------------------------------------------------------
   TIME STEP LENGTH  87667.      1461.1      24.352      1.0147     2.77799E-03
 STRESS PERIOD TIME 2.63000E+06  43833.      730.56      30.440     8.33397E-02
         TOTAL TIME 2.11264E+07 3.52107E+05  5868.4      244.52     0.66945    
1
1
                            STRESS PERIOD NO.   10, LENGTH =   2630000.    
                            -----------------------------------------------

                              NUMBER OF TIME STEPS =    30

                               MULTIPLIER FOR DELT =     1.000

                            INITIAL TIME STEP SIZE =   87666.66    

 REUSING NON-PARAMETER GHB CELLS FROM LAST STRESS PERIOD

      2 GHB CELLS

 REUSING STREAM SEGMENT DATA FROM LAST STRESS PERIOD



            AREAL INFILTRATION RATE
 READING ON UNIT   19 WITH FORMAT: (FREE)              

            1           2           3           4           5           6           7           8           9          10
 ........................................................................................................................
   1   1.0000E-10  2.0000E-10   0.000       0.000       0.000       0.000       0.000       0.000       0.000       0.000    
   2   2.0000E-10  1.0000E-10  2.0000E-10   0.000       0.000      8.0000E-10  8.0000E-10  5.0000E-10   0.000       0.000    
   3    0.000      5.0000E-10  1.0000E-10  1.0000E-10  8.0000E-10  8.0000E-10  5.0000E-10  5.0000E-10   0.000       0.000    
   4   8.0000E-10  5.0000E-10  1.0000E-10  1.0000E-10  1.0000E-10  1.0000E-10  1.0000E-10  1.0000E-10  2.0000E-10   0.000    
   5   8.0000E-10  5.0000E-10  1.0000E-10  1.0000E-10  1.0000E-10  1.0000E-10  1.0000E-10  1.0000E-10  1.0000E-10  1.0000E-10
   6   8.0000E-10  5.0000E-10  5.0000E-10  2.0000E-10  2.0000E-10  1.0000E-10  1.0000E-10  1.0000E-10  1.0000E-10  5.0000E-10
   7   8.0000E-10  5.0000E-10  5.0000E-10  2.0000E-10  2.0000E-10  1.0000E-10  1.0000E-10  2.0000E-10  2.0000E-10   0.000    
   8    0.000      5.0000E-10  5.0000E-10  2.0000E-10  2.0000E-10  1.0000E-10  1.0000E-10  2.0000E-10  5.0000E-10   0.000    
   9    0.000      5.0000E-10  5.0000E-10  2.0000E-10  2.0000E-10  1.0000E-10  1.0000E-10  2.0000E-10  5.0000E-10   0.000    
  10    0.000      5.0000E-10  5.0000E-10  2.0000E-10  2.0000E-10  1.0000E-10  1.0000E-10  2.0000E-10  5.0000E-10  8.0000E-10
  11    0.000      1.0000E-10  1.0000E-10  1.0000E-10  1.0000E-10  1.0000E-10  1.0000E-10  2.0000E-10  5.0000E-10   0.000    
  12   1.0000E-10  1.0000E-10  1.0000E-10  1.0000E-10  1.0000E-10  1.0000E-10  1.0000E-10  1.0000E-10  2.0000E-10   0.000    
  13   1.0000E-10  1.0000E-10  2.0000E-10  2.0000E-10  2.0000E-10  2.0000E-10  2.0000E-10  1.0000E-10  1.0000E-10   0.000    
  14    0.000      2.0000E-10  5.0000E-10  5.0000E-10  5.0000E-10  5.0000E-10  5.0000E-10  2.0000E-10  1.0000E-10   0.000    
  15    0.000       0.000      8.0000E-10  8.0000E-10  8.0000E-10  8.0000E-10   0.000       0.000       0.000       0.000    

                  ET RATE =  7.500000E-08

 USING ET EXTINCTION DEPTH FROM PREVIOUS STRESS PERIOD. CURRENT PERIOD IS:      10

 USING EXTINCTION WATER CONTENT FROM PREVIOUS STRESS PERIOD. CURRENT PERIOD IS:      10

 USING AIR ENTRY PRESSURE FROM PREVIOUS STRESS PERIOD. CURRENT PERIOD IS:      10

 USING ROOT PRESSURE HEAD FROM PREVIOUS STRESS PERIOD. CURRENT PERIOD IS:      10

 USING ROOT ACTIVITY FROM PREVIOUS STRESS PERIOD. CURRENT PERIOD IS:      10

 PROCESSING AG STRESS PERIOD DATA

 READING AG STRESS PERIOD DATA

 READING IRRIGATION SEGMENT

 READING IRRIGATION WELL

 READING SUPPLEMENTAL WELL

 NO IRRPOND OR REUSING IRRPOND DATA FROM LAST STRESS PERIOD

 END PROCESSING AG STRESS PERIOD DATA OPTIONS
 
 SOLVING FOR HEAD 
                                                   Max.-Head-Change                         Max.-Flux-Residual
  Residual-Control   Outer-Iter.   Inner-Iter.     Column Row Layer    Maximum-Head-Change  Column Row Layer    Maximum-Flux-Residual          L2-NORM 
          0                 1           2             5    8     1       0.6750355462E-01       5    8    1         0.3681305166E+01      0.9949917954E+01
          0                 2           2             5    8     1      -0.6566134607E-02       5    8    1        -0.3681221128E+00      0.9949659933E+00
          0                 3           2             5    8     1       0.4471306456E-03       5    8    1         0.2576864080E-01      0.6964779646E-01
          0                 4           1             5    8     1      -0.1779174199E-04       5    8    1        -0.1053938510E-02      0.2848593645E-02

    ------------------------------------------------
       NWT REQUIRED            4 OUTER ITERATIONS 
       AND A TOTAL OF          7 INNER ITERATIONS.
    ------------------------------------------------

 NO OUTPUT CONTROL FOR STRESS PERIOD   10   TIME STEP    1
 
 SOLVING FOR HEAD 
                                                   Max.-Head-Change                         Max.-Flux-Residual
  Residual-Control   Outer-Iter.   Inner-Iter.     Column Row Layer    Maximum-Head-Change  Column Row Layer    Maximum-Flux-Residual          L2-NORM 
          0                 1           2             5    8     1       0.6437024531E-01       5    8    1         0.3507841646E+01      0.9638026420E+01
          0                 2           2             5    8     1      -0.6261356870E-02       5    8    1        -0.3507763033E+00      0.9637665071E+00
          0                 3           2             5    8     1       0.4263763353E-03       5    8    1         0.2455442848E-01      0.6746264611E-01
          0                 4           1             5    8     1      -0.1696590881E-04       5    8    1        -0.1004277183E-02      0.2759185827E-02

    ------------------------------------------------
       NWT REQUIRED            4 OUTER ITERATIONS 
       AND A TOTAL OF          7 INNER ITERATIONS.
    ------------------------------------------------

 NO OUTPUT CONTROL FOR STRESS PERIOD   10   TIME STEP    2
 
 SOLVING FOR HEAD 
                                                   Max.-Head-Change                         Max.-Flux-Residual
  Residual-Control   Outer-Iter.   Inner-Iter.     Column Row Layer    Maximum-Head-Change  Column Row Layer    Maximum-Flux-Residual          L2-NORM 
          0                 1           2             5    6     1       0.6149038016E-01       5    8    1         0.3345024236E+01      0.9332776584E+01
          0                 2           2             5    6     1      -0.5981229275E-02       5    8    1        -0.3344951049E+00      0.9332451156E+00
          0                 3           2             5    6     1       0.4073006380E-03       5    8    1         0.2341473896E-01      0.6532626176E-01
          0                 4           1             5    6     1      -0.1620683604E-04       5    8    1        -0.9576638279E-03      0.2671773593E-02

    ------------------------------------------------
       NWT REQUIRED            4 OUTER ITERATIONS 
       AND A TOTAL OF          7 INNER ITERATIONS.
    ------------------------------------------------

 NO OUTPUT CONTROL FOR STRESS PERIOD   10   TIME STEP    3
 
 SOLVING FOR HEAD 
                                                   Max.-Head-Change                         Max.-Flux-Residual
  Residual-Control   Outer-Iter.   Inner-Iter.     Column Row Layer    Maximum-Head-Change  Column Row Layer    Maximum-Flux-Residual          L2-NORM 
          0                 1           2             5    6     1       0.5886109787E-01       5    6    1         0.3195711328E+01      0.9043850744E+01
          0                 2           2             5    6     1      -0.5725479522E-02       5    6    1        -0.3195641495E+00      0.9043557167E+00
          0                 3           2             5    6     1       0.3898849522E-03       5    6    1         0.2236956846E-01      0.6330408950E-01
          0                 4           1             5    6     1      -0.1551385066E-04       5    6    1        -0.9149163084E-03      0.2589074736E-02

    ------------------------------------------------
       NWT REQUIRED            4 OUTER ITERATIONS 
       AND A TOTAL OF          7 INNER ITERATIONS.
    ------------------------------------------------

 NO OUTPUT CONTROL FOR STRESS PERIOD   10   TIME STEP    4
 
 SOLVING FOR HEAD 
                                                   Max.-Head-Change                         Max.-Flux-Residual
  Residual-Control   Outer-Iter.   Inner-Iter.     Column Row Layer    Maximum-Head-Change  Column Row Layer    Maximum-Flux-Residual          L2-NORM 
          0                 1           2             5    6     1       0.5637947457E-01       5    6    1         0.3059067139E+01      0.8770064442E+01
          0                 2           2             5    6     1      -0.5484092361E-02       5    6    1        -0.3059002224E+00      0.8769799481E+00
          0                 3           2             5    6     1       0.3734473119E-03       5    6    1         0.2141308849E-01      0.6138785024E-01
          0                 4           1             5    6     1      -0.1485978268E-04       5    6    1        -0.8757962396E-03      0.2510698871E-02

    ------------------------------------------------
       NWT REQUIRED            4 OUTER ITERATIONS 
       AND A TOTAL OF          7 INNER ITERATIONS.
    ------------------------------------------------

 NO OUTPUT CONTROL FOR STRESS PERIOD   10   TIME STEP    5
 
 SOLVING FOR HEAD 
                                                   Max.-Head-Change                         Max.-Flux-Residual
  Residual-Control   Outer-Iter.   Inner-Iter.     Column Row Layer    Maximum-Head-Change  Column Row Layer    Maximum-Flux-Residual          L2-NORM 
          0                 1           2             5    6     1       0.5403555945E-01       5    6    1         0.2930087054E+01      0.8510354165E+01
          0                 2           2             5    6     1      -0.5256099900E-02       5    6    1        -0.2930026677E+00      0.8510115460E+00
          0                 3           2             5    6     1       0.3579218064E-03       5    6    1         0.2051025499E-01      0.5957018249E-01
          0                 4           1             5    6     1      -0.1424200912E-04       5    6    1        -0.8388703136E-03      0.2436378795E-02

    ------------------------------------------------
       NWT REQUIRED            4 OUTER ITERATIONS 
       AND A TOTAL OF          7 INNER ITERATIONS.
    ------------------------------------------------

 NO OUTPUT CONTROL FOR STRESS PERIOD   10   TIME STEP    6
 
 SOLVING FOR HEAD 
                                                   Max.-Head-Change                         Max.-Flux-Residual
  Residual-Control   Outer-Iter.   Inner-Iter.     Column Row Layer    Maximum-Head-Change  Column Row Layer    Maximum-Flux-Residual          L2-NORM 
          0                 1           2             5    7     1       0.5259313896E-01       5    6    1         0.2808279614E+01      0.8263743414E+01
          0                 2           2             5    7     1      -0.5115836901E-02       5    6    1        -0.2808223425E+00      0.8263522756E+00
          0                 3           2             5    7     1       0.3483699753E-03       5    6    1         0.1965762790E-01      0.5784401820E-01
          0                 4           1             5    7     1      -0.1386196739E-04       5    6    1        -0.8039978427E-03      0.2365785834E-02

    ------------------------------------------------
       NWT REQUIRED            4 OUTER ITERATIONS 
       AND A TOTAL OF          7 INNER ITERATIONS.
    ------------------------------------------------

 NO OUTPUT CONTROL FOR STRESS PERIOD   10   TIME STEP    7
 
 SOLVING FOR HEAD 
                                                   Max.-Head-Change                         Max.-Flux-Residual
  Residual-Control   Outer-Iter.   Inner-Iter.     Column Row Layer    Maximum-Head-Change  Column Row Layer    Maximum-Flux-Residual          L2-NORM 
          0                 1           2             5    7     1       0.5136075917E-01       5    7    1         0.2733295031E+01      0.8029331514E+01
          0                 2           2             5    7     1      -0.4995965693E-02       5    7    1        -0.2733270897E+00      0.8029136819E+00
          0                 3           2             5    7     1       0.3402071341E-03       5    7    1         0.1913292965E-01      0.5620346151E-01
          0                 4           1             5    7     1      -0.1353716077E-04       5    7    1        -0.7825378004E-03      0.2298687420E-02

    ------------------------------------------------
       NWT REQUIRED            4 OUTER ITERATIONS 
       AND A TOTAL OF          7 INNER ITERATIONS.
    ------------------------------------------------

 NO OUTPUT CONTROL FOR STRESS PERIOD   10   TIME STEP    8
 
 SOLVING FOR HEAD 
                                                   Max.-Head-Change                         Max.-Flux-Residual
  Residual-Control   Outer-Iter.   Inner-Iter.     Column Row Layer    Maximum-Head-Change  Column Row Layer    Maximum-Flux-Residual          L2-NORM 
          0                 1           2             5    7     1       0.5015352133E-01       5    7    1         0.2669242816E+01      0.7806284730E+01
          0                 2           2             5    7     1      -0.4878539412E-02       5    7    1        -0.2669222082E+00      0.7806108663E+00
          0                 3           2             5    7     1       0.3322107904E-03       5    7    1         0.1868458452E-01      0.5464230868E-01
          0                 4           1             5    7     1      -0.1321897893E-04       5    7    1        -0.7642004753E-03      0.2234834693E-02

    ------------------------------------------------
       NWT REQUIRED            4 OUTER ITERATIONS 
       AND A TOTAL OF          7 INNER ITERATIONS.
    ------------------------------------------------

 NO OUTPUT CONTROL FOR STRESS PERIOD   10   TIME STEP    9
 
 SOLVING FOR HEAD 
                                                   Max.-Head-Change                         Max.-Flux-Residual
  Residual-Control   Outer-Iter.   Inner-Iter.     Column Row Layer    Maximum-Head-Change  Column Row Layer    Maximum-Flux-Residual          L2-NORM 
          0                 1           2             5    7     1       0.4897202846E-01       5    7    1         0.2606502319E+01      0.7593843864E+01
          0                 2           2             5    7     1      -0.4763616805E-02       5    7    1        -0.2606484570E+00      0.7593684586E+00
          0                 3           2             5    7     1       0.3243849435E-03       5    7    1         0.1824541893E-01      0.5315540984E-01
          0                 4           1             5    7     1      -0.1290758123E-04       5    7    1        -0.7462385827E-03      0.2174028855E-02

    ------------------------------------------------
       NWT REQUIRED            4 OUTER ITERATIONS 
       AND A TOTAL OF          7 INNER ITERATIONS.
    ------------------------------------------------

 NO OUTPUT CONTROL FOR STRESS PERIOD   10   TIME STEP   10
 
 SOLVING FOR HEAD 
                                                   Max.-Head-Change                         Max.-Flux-Residual
  Residual-Control   Outer-Iter.   Inner-Iter.     Column Row Layer    Maximum-Head-Change  Column Row Layer    Maximum-Flux-Residual          L2-NORM 
          0                 1           2             4    7     1       0.4832697355E-01       5    7    1         0.2545096671E+01      0.7391307120E+01
          0                 2           2             4    7     1      -0.4700889317E-02       5    7    1        -0.2545081544E+00      0.7391162819E+00
          0                 3           2             4    7     1       0.3201132513E-03       5    7    1         0.1781559507E-01      0.5173779134E-01
          0                 4           1             4    7     1      -0.1273760511E-04       5    7    1        -0.7286587766E-03      0.2116069473E-02

    ------------------------------------------------
       NWT REQUIRED            4 OUTER ITERATIONS 
       AND A TOTAL OF          7 INNER ITERATIONS.
    ------------------------------------------------

 NO OUTPUT CONTROL FOR STRESS PERIOD   10   TIME STEP   11
 
 SOLVING FOR HEAD 
                                                   Max.-Head-Change                         Max.-Flux-Residual
  Residual-Control   Outer-Iter.   Inner-Iter.     Column Row Layer    Maximum-Head-Change  Column Row Layer    Maximum-Flux-Residual          L2-NORM 
          0                 1           2             4    7     1       0.4786730452E-01       4    7    1         0.2510933815E+01      0.7198035168E+01
          0                 2           2             4    7     1      -0.4656179719E-02       4    7    1        -0.2510931596E+00      0.7197904628E+00
          0                 3           2             4    7     1       0.3170686577E-03       4    7    1         0.1757653313E-01      0.5038502085E-01
          0                 4           1             4    7     1      -0.1261645829E-04       4    7    1        -0.7188811987E-03      0.2060731287E-02

    ------------------------------------------------
       NWT REQUIRED            4 OUTER ITERATIONS 
       AND A TOTAL OF          7 INNER ITERATIONS.
    ------------------------------------------------

 NO OUTPUT CONTROL FOR STRESS PERIOD   10   TIME STEP   12
 
 SOLVING FOR HEAD 
                                                   Max.-Head-Change                         Max.-Flux-Residual
  Residual-Control   Outer-Iter.   Inner-Iter.     Column Row Layer    Maximum-Head-Change  Column Row Layer    Maximum-Flux-Residual          L2-NORM 
          0                 1           2             4    7     1       0.4738481346E-01       4    7    1         0.2487049960E+01      0.7013430599E+01
          0                 2           2             4    7     1      -0.4609249751E-02       4    7    1        -0.2487049885E+00      0.7013312006E+00
          0                 3           2             4    7     1       0.3138728688E-03       4    7    1         0.1740935905E-01      0.4909289135E-01
          0                 4           1             4    7     1      -0.1248929468E-04       4    7    1        -0.7120437681E-03      0.2007869816E-02

    ------------------------------------------------
       NWT REQUIRED            4 OUTER ITERATIONS 
       AND A TOTAL OF          7 INNER ITERATIONS.
    ------------------------------------------------

 NO OUTPUT CONTROL FOR STRESS PERIOD   10   TIME STEP   13
 
 SOLVING FOR HEAD 
                                                   Max.-Head-Change                         Max.-Flux-Residual
  Residual-Control   Outer-Iter.   Inner-Iter.     Column Row Layer    Maximum-Head-Change  Column Row Layer    Maximum-Flux-Residual          L2-NORM 
          0                 1           2             4    7     1       0.4688191466E-01       4    7    1         0.2461982804E+01      0.6836939612E+01
          0                 2           2             4    7     1      -0.4560334296E-02       4    7    1        -0.2461984628E+00      0.6836832294E+00
          0                 3           2             4    7     1       0.3105418791E-03       4    7    1         0.1723390037E-01      0.4785758011E-01
          0                 4           1             4    7     1      -0.1235675173E-04       4    7    1        -0.7048675004E-03      0.1957335121E-02

    ------------------------------------------------
       NWT REQUIRED            4 OUTER ITERATIONS 
       AND A TOTAL OF          7 INNER ITERATIONS.
    ------------------------------------------------

 NO OUTPUT CONTROL FOR STRESS PERIOD   10   TIME STEP   14
 
 SOLVING FOR HEAD 
                                                   Max.-Head-Change                         Max.-Flux-Residual
  Residual-Control   Outer-Iter.   Inner-Iter.     Column Row Layer    Maximum-Head-Change  Column Row Layer    Maximum-Flux-Residual          L2-NORM 
          0                 1           2             4    7     1       0.4636074021E-01       4    7    1         0.2435850281E+01      0.6668062792E+01
          0                 2           2             4    7     1      -0.4509640782E-02       4    7    1        -0.2435853781E+00      0.6667965036E+00
          0                 3           2             4    7     1       0.3070898136E-03       4    7    1         0.1705098277E-01      0.4667551915E-01
          0                 4           1             4    7     1      -0.1221939068E-04       4    7    1        -0.6973861598E-03      0.1909011688E-02

    ------------------------------------------------
       NWT REQUIRED            4 OUTER ITERATIONS 
       AND A TOTAL OF          7 INNER ITERATIONS.
    ------------------------------------------------

 NO OUTPUT CONTROL FOR STRESS PERIOD   10   TIME STEP   15
 
 SOLVING FOR HEAD 
                                                   Max.-Head-Change                         Max.-Flux-Residual
  Residual-Control   Outer-Iter.   Inner-Iter.     Column Row Layer    Maximum-Head-Change  Column Row Layer    Maximum-Flux-Residual          L2-NORM 
          0                 1           2             4    7     1       0.4582354639E-01       4    7    1         0.2408777424E+01      0.6506338160E+01
          0                 2           2             4    7     1      -0.4457388715E-02       4    7    1        -0.2408782396E+00      0.6506249431E+00
          0                 3           2             4    7     1       0.3035316200E-03       4    7    1         0.1686148161E-01      0.4554353077E-01
          0                 4           1             4    7     1      -0.1207780699E-04       4    7    1        -0.6896355637E-03      0.1862714554E-02

    ------------------------------------------------
       NWT REQUIRED            4 OUTER ITERATIONS 
       AND A TOTAL OF          7 INNER ITERATIONS.
    ------------------------------------------------

 NO OUTPUT CONTROL FOR STRESS PERIOD   10   TIME STEP   16
 
 SOLVING FOR HEAD 
                                                   Max.-Head-Change                         Max.-Flux-Residual
  Residual-Control   Outer-Iter.   Inner-Iter.     Column Row Layer    Maximum-Head-Change  Column Row Layer    Maximum-Flux-Residual          L2-NORM 
          0                 1           2             4    7     1       0.4527204088E-01       4    7    1         0.2380859483E+01      0.6351318313E+01
          0                 2           2             4    7     1      -0.4403744235E-02       4    7    1        -0.2380865746E+00      0.6351237748E+00
          0                 3           2             4    7     1       0.2998786106E-03       4    7    1         0.1666606377E-01      0.4445849577E-01
          0                 4           1             4    7     1      -0.1193245022E-04       4    7    1        -0.6816429657E-03      0.1818337683E-02

    ------------------------------------------------
       NWT REQUIRED            4 OUTER ITERATIONS 
       AND A TOTAL OF          7 INNER ITERATIONS.
    ------------------------------------------------

 NO OUTPUT CONTROL FOR STRESS PERIOD   10   TIME STEP   17
 
 SOLVING FOR HEAD 
                                                   Max.-Head-Change                         Max.-Flux-Residual
  Residual-Control   Outer-Iter.   Inner-Iter.     Column Row Layer    Maximum-Head-Change  Column Row Layer    Maximum-Flux-Residual          L2-NORM 
          0                 1           2             4    7     1       0.4470821040E-01       4    7    1         0.2352206732E+01      0.6202614581E+01
          0                 2           2             4    7     1      -0.4348900622E-02       4    7    1        -0.2352214121E+00      0.6202541047E+00
          0                 3           2             4    7     1       0.2961439472E-03       4    7    1         0.1646550122E-01      0.4341760199E-01
          0                 4           1             4    7     1      -0.1178384536E-04       4    7    1        -0.6734399701E-03      0.1775764205E-02

    ------------------------------------------------
       NWT REQUIRED            4 OUTER ITERATIONS 
       AND A TOTAL OF          7 INNER ITERATIONS.
    ------------------------------------------------

 NO OUTPUT CONTROL FOR STRESS PERIOD   10   TIME STEP   18
 
 SOLVING FOR HEAD 
                                                   Max.-Head-Change                         Max.-Flux-Residual
  Residual-Control   Outer-Iter.   Inner-Iter.     Column Row Layer    Maximum-Head-Change  Column Row Layer    Maximum-Flux-Residual          L2-NORM 
          0                 1           2             4    7     1       0.4413378162E-01       4    7    1         0.2322914936E+01      0.6059855419E+01
          0                 2           2             4    7     1      -0.4293025859E-02       4    7    1        -0.2322923301E+00      0.6059788795E+00
          0                 3           2             4    7     1       0.2923390684E-03       4    7    1         0.1626046448E-01      0.4241836014E-01
          0                 4           1             4    7     1      -0.1163244554E-04       4    7    1        -0.6650539615E-03      0.1734895812E-02

    ------------------------------------------------
       NWT REQUIRED            4 OUTER ITERATIONS 
       AND A TOTAL OF          7 INNER ITERATIONS.
    ------------------------------------------------

 NO OUTPUT CONTROL FOR STRESS PERIOD   10   TIME STEP   19
 
 SOLVING FOR HEAD 
                                                   Max.-Head-Change                         Max.-Flux-Residual
  Residual-Control   Outer-Iter.   Inner-Iter.     Column Row Layer    Maximum-Head-Change  Column Row Layer    Maximum-Flux-Residual          L2-NORM 
          0                 1           2             4    7     1       0.4355035268E-01       4    7    1         0.2293073620E+01      0.5922701148E+01
          0                 2           2             4    7     1      -0.4236275423E-02       4    7    1        -0.2293082826E+00      0.5922640083E+00
          0                 3           2             4    7     1       0.2884745613E-03       4    7    1         0.1605158027E-01      0.4145833896E-01
          0                 4           1             4    7     1      -0.1147867306E-04       4    7    1        -0.6565105734E-03      0.1695632113E-02

    ------------------------------------------------
       NWT REQUIRED            4 OUTER ITERATIONS 
       AND A TOTAL OF          7 INNER ITERATIONS.
    ------------------------------------------------

 NO OUTPUT CONTROL FOR STRESS PERIOD   10   TIME STEP   20
 
 SOLVING FOR HEAD 
                                                   Max.-Head-Change                         Max.-Flux-Residual
  Residual-Control   Outer-Iter.   Inner-Iter.     Column Row Layer    Maximum-Head-Change  Column Row Layer    Maximum-Flux-Residual          L2-NORM 
          0                 1           2             4    7     1       0.4295915007E-01       4    7    1         0.2262751151E+01      0.5790823048E+01
          0                 2           2             4    7     1      -0.4178768637E-02       4    7    1        -0.2262761077E+00      0.5790767271E+00
          0                 3           2             4    7     1       0.2845585518E-03       4    7    1         0.1583932725E-01      0.4053524765E-01
          0                 4           1             4    7     1      -0.1132285153E-04       4    7    1        -0.6478294292E-03      0.1657892070E-02

    ------------------------------------------------
       NWT REQUIRED            4 OUTER ITERATIONS 
       AND A TOTAL OF          7 INNER ITERATIONS.
    ------------------------------------------------

 NO OUTPUT CONTROL FOR STRESS PERIOD   10   TIME STEP   21
 
 SOLVING FOR HEAD 
                                                   Max.-Head-Change                         Max.-Flux-Residual
  Residual-Control   Outer-Iter.   Inner-Iter.     Column Row Layer    Maximum-Head-Change  Column Row Layer    Maximum-Flux-Residual          L2-NORM 
          0                 1           2             4    7     1       0.4236183306E-01       4    7    1         0.2232040107E+01      0.5663938393E+01
          0                 2           2             4    7     1      -0.4120666923E-02       4    7    1        -0.2232050644E+00      0.5663887306E+00
          0                 3           2             4    7     1       0.2806020307E-03       4    7    1         0.1562435354E-01      0.3964709507E-01
          0                 4           1             4    7     1      -0.1116541765E-04       4    7    1        -0.6390369767E-03      0.1621553150E-02

    ------------------------------------------------
       NWT REQUIRED            4 OUTER ITERATIONS 
       AND A TOTAL OF          7 INNER ITERATIONS.
    ------------------------------------------------

 NO OUTPUT CONTROL FOR STRESS PERIOD   10   TIME STEP   22
 
 SOLVING FOR HEAD 
                                                   Max.-Head-Change                         Max.-Flux-Residual
  Residual-Control   Outer-Iter.   Inner-Iter.     Column Row Layer    Maximum-Head-Change  Column Row Layer    Maximum-Flux-Residual          L2-NORM 
          0                 1           2             4    7     1       0.4175954877E-01       4    7    1         0.2201004780E+01      0.5541770892E+01
          0                 2           2             4    7     1      -0.4062081880E-02       4    7    1        -0.2201015830E+00      0.5541724049E+00
          0                 3           2             4    7     1       0.2766125987E-03       4    7    1         0.1540710925E-01      0.3879195314E-01
          0                 4           1             4    7     1      -0.1100667453E-04       4    7    1        -0.6301516773E-03      0.1586610872E-02

    ------------------------------------------------
       NWT REQUIRED            4 OUTER ITERATIONS 
       AND A TOTAL OF          7 INNER ITERATIONS.
    ------------------------------------------------

 NO OUTPUT CONTROL FOR STRESS PERIOD   10   TIME STEP   23
 
 SOLVING FOR HEAD 
                                                   Max.-Head-Change                         Max.-Flux-Residual
  Residual-Control   Outer-Iter.   Inner-Iter.     Column Row Layer    Maximum-Head-Change  Column Row Layer    Maximum-Flux-Residual          L2-NORM 
          0                 1           2             4    7     1       0.4115348974E-01       4    7    1         0.2169711893E+01      0.5424053144E+01
          0                 2           2             4    7     1      -0.4003129525E-02       4    7    1        -0.2169723367E+00      0.5424010184E+00
          0                 3           2             4    7     1       0.2725981557E-03       4    7    1         0.1518806155E-01      0.3796796855E-01
          0                 4           1             4    7     1      -0.1084693602E-04       4    7    1        -0.6211926097E-03      0.1552887867E-02

    ------------------------------------------------
       NWT REQUIRED            4 OUTER ITERATIONS 
       AND A TOTAL OF          7 INNER ITERATIONS.
    ------------------------------------------------

 NO OUTPUT CONTROL FOR STRESS PERIOD   10   TIME STEP   24
 
 SOLVING FOR HEAD 
                                                   Max.-Head-Change                         Max.-Flux-Residual
  Residual-Control   Outer-Iter.   Inner-Iter.     Column Row Layer    Maximum-Head-Change  Column Row Layer    Maximum-Flux-Residual          L2-NORM 
          0                 1           2             4    7     1       0.4054475754E-01       4    7    1         0.2138223277E+01      0.5310570522E+01
          0                 2           2             4    7     1      -0.3943917023E-02       4    7    1        -0.2138235096E+00      0.5310531044E+00
          0                 3           2             4    7     1       0.2685659982E-03       4    7    1         0.1496764320E-01      0.3717361722E-01
          0                 4           1             4    7     1      -0.1068649270E-04       4    7    1        -0.6121774950E-03      0.1520395561E-02

    ------------------------------------------------
       NWT REQUIRED            4 OUTER ITERATIONS 
       AND A TOTAL OF          7 INNER ITERATIONS.
    ------------------------------------------------

 NO OUTPUT CONTROL FOR STRESS PERIOD   10   TIME STEP   25
 
 SOLVING FOR HEAD 
                                                   Max.-Head-Change                         Max.-Flux-Residual
  Residual-Control   Outer-Iter.   Inner-Iter.     Column Row Layer    Maximum-Head-Change  Column Row Layer    Maximum-Flux-Residual          L2-NORM 
          0                 1           2             4    7     1       0.3993436990E-01       4    7    1         0.2106596048E+01      0.5201087342E+01
          0                 2           2             4    7     1      -0.3884543388E-02       4    7    1        -0.2106608142E+00      0.5201051110E+00
          0                 3           2             4    7     1       0.2645228697E-03       4    7    1         0.1474625418E-01      0.3640726690E-01
          0                 4           1             4    7     1      -0.1052561293E-04       4    7    1        -0.6031226719E-03      0.1489066352E-02

    ------------------------------------------------
       NWT REQUIRED            4 OUTER ITERATIONS 
       AND A TOTAL OF          7 INNER ITERATIONS.
    ------------------------------------------------

 NO OUTPUT CONTROL FOR STRESS PERIOD   10   TIME STEP   26
 
 SOLVING FOR HEAD 
                                                   Max.-Head-Change                         Max.-Flux-Residual
  Residual-Control   Outer-Iter.   Inner-Iter.     Column Row Layer    Maximum-Head-Change  Column Row Layer    Maximum-Flux-Residual          L2-NORM 
          0                 1           2             4    7     1       0.3932326234E-01       4    7    1         0.2074882974E+01      0.5095396784E+01
          0                 2           2             4    7     1      -0.3825099628E-02       4    7    1        -0.2074895280E+00      0.5095363457E+00
          0                 3           2             4    7     1       0.2604749670E-03       4    7    1         0.1452426385E-01      0.3566745979E-01
          0                 4           1             4    7     1      -0.1036454320E-04       4    7    1        -0.5940432636E-03      0.1458795444E-02

    ------------------------------------------------
       NWT REQUIRED            4 OUTER ITERATIONS 
       AND A TOTAL OF          7 INNER ITERATIONS.
    ------------------------------------------------

 NO OUTPUT CONTROL FOR STRESS PERIOD   10   TIME STEP   27
 
 SOLVING FOR HEAD 
                                                   Max.-Head-Change                         Max.-Flux-Residual
  Residual-Control   Outer-Iter.   Inner-Iter.     Column Row Layer    Maximum-Head-Change  Column Row Layer    Maximum-Flux-Residual          L2-NORM 
          0                 1           2             4    7     1       0.3871229399E-01       4    7    1         0.2043132560E+01      0.4993314857E+01
          0                 2           2             4    7     1      -0.3765669325E-02       4    7    1        -0.2043145022E+00      0.4993283929E+00
          0                 3           2             4    7     1       0.2564279809E-03       4    7    1         0.1430201180E-01      0.3495290600E-01
          0                 4           1             4    7     1      -0.1020350974E-04       4    7    1        -0.5849531337E-03      0.1429577065E-02

    ------------------------------------------------
       NWT REQUIRED            4 OUTER ITERATIONS 
       AND A TOTAL OF          7 INNER ITERATIONS.
    ------------------------------------------------

 NO OUTPUT CONTROL FOR STRESS PERIOD   10   TIME STEP   28
 
 SOLVING FOR HEAD 
                                                   Max.-Head-Change                         Max.-Flux-Residual
  Residual-Control   Outer-Iter.   Inner-Iter.     Column Row Layer    Maximum-Head-Change  Column Row Layer    Maximum-Flux-Residual          L2-NORM 
          0                 1           2             4    7     1       0.3810212647E-01       4    7    1         0.2011382100E+01      0.4894658827E+01
          0                 2           2             4    7     1      -0.3706316845E-02       4    7    1        -0.2011394667E+00      0.4894630357E+00
          0                 3           2             4    7     1       0.2523862954E-03       4    7    1         0.1407975912E-01      0.3426233582E-01
          0                 4           1             4    7     1      -0.1004268765E-04       4    7    1        -0.5758629968E-03      0.1401335738E-02

    ------------------------------------------------
       NWT REQUIRED            4 OUTER ITERATIONS 
       AND A TOTAL OF          7 INNER ITERATIONS.
    ------------------------------------------------

 NO OUTPUT CONTROL FOR STRESS PERIOD   10   TIME STEP   29
 
 SOLVING FOR HEAD 
                                                   Max.-Head-Change                         Max.-Flux-Residual
  Residual-Control   Outer-Iter.   Inner-Iter.     Column Row Layer    Maximum-Head-Change  Column Row Layer    Maximum-Flux-Residual          L2-NORM 
          0                 1           2             4    7     1       0.3749375410E-01       4    7    1         0.1979687654E+01      0.4799260292E+01
          0                 2           2             4    7     1      -0.3647138917E-02       4    7    1        -0.1979700282E+00      0.4799233935E+00
          0                 3           2             4    7     1       0.2483564970E-03       4    7    1         0.1385789828E-01      0.3359455982E-01
          0                 4           1             4    7     1      -0.9882338157E-05       4    7    1        -0.5667888897E-03      0.1374010764E-02

    ------------------------------------------------
       NWT REQUIRED            4 OUTER ITERATIONS 
       AND A TOTAL OF          7 INNER ITERATIONS.
    ------------------------------------------------

 NO OUTPUT CONTROL FOR STRESS PERIOD   10   TIME STEP   30



 STREAM LISTING     PERIOD     10   STEP       30

 LAYER ROW COL. STREAM  RCH.  FLOW INTO     FLOW TO   FLOW OUT OF   OVRLND.     DIRECT     STREAM       STREAM     STREAM     STREAM   STREAMBED  STREAMBED
                SEG.NO.  NO.  STRM. RCH.    AQUIFER    STRM. RCH.    RUNOFF     PRECIP       ET          HEAD       DEPTH      WIDTH   CONDCTNC.   GRADIENT

   1    1    1     1     1    1.7625E+01  2.0521E-01   1.7420E+01  0.000E+00  0.000E+00  0.000E+00  1.09411E+03  1.059E+00  1.124E+01  5.056E-02  1.353E+00
   1    2    2     1     2    1.7420E+01  3.1649E-01   1.7103E+01  0.000E+00  0.000E+00  0.000E+00  1.08911E+03  1.054E+00  1.115E+01  7.807E-02  1.351E+00
   1    3    3     1     3    1.7103E+01  2.6863E-01   1.6835E+01  0.000E+00  0.000E+00  0.000E+00  1.08347E+03  1.049E+00  1.106E+01  6.635E-02  1.350E+00
   1    3    4     1     4    1.6835E+01  2.4632E-01   1.6588E+01  0.000E+00  0.000E+00  0.000E+00  1.07845E+03  1.044E+00  1.097E+01  6.091E-02  1.348E+00
   1    4    5     2     1    1.4588E+01  3.0175E-01   1.4286E+01  0.000E+00  0.000E+00  0.000E+00  1.07280E+03  8.686E-01  1.200E+01  7.800E-02  1.290E+00
   1    5    6     2     2    1.4286E+01  2.3154E-01   1.4055E+01  0.000E+00  0.000E+00  0.000E+00  1.06737E+03  8.590E-01  1.200E+01  6.000E-02  1.286E+00
   1    6    6     2     3    1.4055E+01  2.3103E-01   1.3824E+01  0.000E+00  0.000E+00  0.000E+00  1.06264E+03  8.505E-01  1.200E+01  6.000E-02  1.284E+00
   1    7    6     2     4    1.3824E+01  2.3052E-01   1.3593E+01  0.000E+00  0.000E+00  0.000E+00  1.05792E+03  8.421E-01  1.200E+01  6.000E-02  1.281E+00
   1    8    6     2     5    1.3593E+01  2.3001E-01   1.3363E+01  0.000E+00  0.000E+00  0.000E+00  1.05319E+03  8.335E-01  1.200E+01  6.000E-02  1.278E+00
   1    3    5     3     1    2.0000E+00  2.8252E-01   1.7175E+00  0.000E+00  0.000E+00  0.000E+00  1.07555E+03  1.909E+00  9.636E+00  7.227E-02  1.955E+00
   1    3    6     3     2    1.7175E+00  2.4905E-01   1.4684E+00  0.000E+00  0.000E+00  0.000E+00  1.07264E+03  1.727E+00  8.909E+00  6.682E-02  1.864E+00
   1    3    7     3     3    1.4684E+00  1.9718E-01   1.2712E+00  0.000E+00  0.000E+00  0.000E+00  1.06987E+03  1.555E+00  8.218E+00  5.547E-02  1.777E+00
   1    4    8     3     4    1.2712E+00  2.2567E-01   1.0456E+00  0.000E+00  0.000E+00  0.000E+00  1.06682E+03  1.364E+00  7.455E+00  6.709E-02  1.682E+00
   1    5    8     3     5    1.0456E+00  1.5790E-01   8.8768E-01  0.000E+00  0.000E+00  0.000E+00  1.06362E+03  1.164E+00  6.655E+00  4.991E-02  1.582E+00
   1    6    8     3     6    8.8768E-01  5.5980E-02   8.3170E-01  0.000E+00  0.000E+00  0.000E+00  1.06158E+03  1.036E+00  6.145E+00  1.844E-02  1.518E+00
   1    5   10     4     1    1.0000E+01  9.0919E-02   9.9091E+00  0.000E+00  0.000E+00  0.000E+00  1.07836E+03  6.368E-01  1.000E+01  2.500E-02  1.212E+00
   1    5    9     4     2    9.9091E+00  1.8158E-01   9.7275E+00  0.000E+00  0.000E+00  0.000E+00  1.07154E+03  6.315E-01  1.000E+01  5.000E-02  1.211E+00
   1    6    8     4     3    9.7275E+00  1.2689E-01   9.6006E+00  0.000E+00  0.000E+00  0.000E+00  1.06381E+03  6.256E-01  1.000E+01  3.500E-02  1.209E+00
   1    6    8     5     1    1.0432E+01  2.2686E-01   1.0205E+01  0.000E+00  0.000E+00  0.000E+00  1.05868E+03  6.790E-01  1.542E+01  6.166E-02  1.226E+00
   1    7    7     5     2    1.0205E+01  2.7894E-01   9.9265E+00  0.000E+00  0.000E+00  0.000E+00  1.05417E+03  6.732E-01  1.519E+01  7.594E-02  1.224E+00
   1    8    7     5     3    9.9265E+00  1.9221E-01   9.7343E+00  0.000E+00  0.000E+00  0.000E+00  1.04992E+03  6.676E-01  1.497E+01  5.241E-02  1.223E+00
   1    8    6     5     4    9.7343E+00  1.3577E-01   9.5985E+00  0.000E+00  0.000E+00  0.000E+00  1.04691E+03  6.637E-01  1.482E+01  3.706E-02  1.221E+00
   1    9    6     6     1    2.2962E+01  2.4939E-01   2.2712E+01  0.000E+00  0.000E+00  0.000E+00  1.04388E+03  1.157E+00  1.200E+01  6.000E-02  1.386E+00
   1   10    7     6     2    2.2712E+01  2.4894E-01   2.2464E+01  0.000E+00  0.000E+00  0.000E+00  1.03933E+03  1.149E+00  1.200E+01  6.000E-02  1.383E+00
   1   11    7     6     3    2.2464E+01  2.4848E-01   2.2215E+01  0.000E+00  0.000E+00  0.000E+00  1.03478E+03  1.141E+00  1.200E+01  6.000E-02  1.380E+00
   1   12    7     6     4    2.2215E+01  2.4802E-01   2.1967E+01  0.000E+00  0.000E+00  0.000E+00  1.03022E+03  1.134E+00  1.200E+01  6.000E-02  1.378E+00
   1   13    7     6     5    2.1967E+01  3.7510E-03   2.1963E+01  0.000E+00  0.000E+00  0.000E+00  1.02704E+03  1.130E+00  1.200E+01  2.400E-02  5.210E-02
   1   14    9     7     1    1.5000E+02  1.3682E+00   1.4863E+02  0.000E+00  0.000E+00  0.000E+00  1.03987E+03  2.288E+00  5.529E+01  5.593E-01  8.155E-01
   1   13    8     7     2    1.4863E+02  1.9096E+00   1.4672E+02  0.000E+00  0.000E+00  0.000E+00  1.03478E+03  2.279E+00  5.526E+01  6.148E-01  1.035E+00
   1   13    7     7     3    1.4672E+02  1.5671E+00   1.4516E+02  0.000E+00  0.000E+00  0.000E+00  1.02969E+03  2.270E+00  5.521E+01  5.584E-01  9.355E-01
   1   13    6     8     1    1.6712E+02  9.9024E-01   1.6613E+02  0.000E+00  0.000E+00  0.000E+00  1.02481E+03  2.930E+00  4.249E+01  4.329E-01  7.624E-01
   1   13    5     8     2    1.6613E+02  2.3432E-01   1.6589E+02  0.000E+00  0.000E+00  0.000E+00  1.01855E+03  2.926E+00  4.243E+01  4.324E-01  1.807E-01
   1   13    4     8     3    1.6589E+02 -2.2496E+00   1.6814E+02  0.000E+00  0.000E+00  0.000E+00  1.01231E+03  2.933E+00  4.252E+01  4.333E+00 -1.730E-01
   1   13    3     8     4    1.6814E+02 -3.5627E+00   1.7171E+02  0.000E+00  0.000E+00  0.000E+00  1.00608E+03  2.952E+00  4.280E+01  4.361E+00 -2.723E-01
   1   13    2     8     5    1.7171E+02 -2.5599E+00   1.7427E+02  0.000E+00  0.000E+00  0.000E+00  9.99847E+02  2.972E+00  4.309E+01  4.391E+00 -1.943E-01
   1   13    1     8     6    1.7427E+02 -1.9864E+00   1.7625E+02  0.000E+00  0.000E+00  0.000E+00  9.94861E+02  2.986E+00  4.330E+01  2.647E+00 -2.501E-01
   1    8    6     9     1    0.0000E+00  0.0000E+00   0.0000E+00  0.000E+00  0.000E+00  0.000E+00  1.07875E+03  0.000E+00  4.000E+00  0.000E+00  1.000E+00
   1    8    5     9     2    0.0000E+00  0.0000E+00   0.0000E+00  0.000E+00  0.000E+00  0.000E+00  1.07825E+03  0.000E+00  4.000E+00  0.000E+00  1.000E+00





UNSATURATED ZONE PACKAGE VOLUMETRIC BUDGET FOR  TIME STEP    30 STRESS PERIOD   10
  ------------------------------------------------------------------------------



     CUMULATIVE VOLUMES      L**3       RATES FOR THIS TIME STEP      L**3/T
     ------------------                 ------------------------

           IN:                                      IN:
           ---                                      ---
        INFILTRATION =   424023181.2438          INFILTRATION =          12.0675

          OUT:                                     OUT:
          ----                                     ----
              UZF ET =   423865597.8800                UZF ET =          12.0675
        UZF RECHARGE =       73224.0000          UZF RECHARGE =       0.0000E+00

            IN - OUT =       84359.3638              IN - OUT =       0.0000E+00

          STORAGE:                                 STORAGE:
          --------                                 --------
      STORAGE CHANGE =       84359.1881        STORAGE CHANGE =      -2.2824E-16

 PERCENT DISCREPANCY IS DIFFERENCE BETWEEN IN-OUT MINUS CHANGE IN STORAGE
 DIVIDED BY THE AVERAGE OF IN AND OUT TIMES 100

 PERCENT DISCREPANCY =           0.00     PERCENT DISCREPANCY =           0.00






1
  VOLUMETRIC BUDGET FOR AGRICULTURAL FIELDS AT  END OF TIME STEP   30, STRESS PERIOD  10
  ------------------------------------------------------------------------------

     CUMULATIVE VOLUMES      L**3       RATES FOR THIS TIME STEP      L**3/T
     ------------------                 ------------------------

           IN:                                      IN:
           ---                                      ---
               AG WELLS  =   403889344.0000                 AG WELLS  =          11.2200
      DIVERSION SEGMENTS =           0.0000        DIVERSION SEGMENTS =           0.0000
       IRRIGATION PONDS  =           0.0000         IRRIGATION PONDS  =           0.0000
           GW IRRIGATION =           0.0000             GW IRRIGATION =           0.0000
           SW IRRIGATION =           0.0000             SW IRRIGATION =           0.0000
        SYSTEM LOSSES GW =           0.0000          SYSTEM LOSSES GW =           0.0000
        SYSTEM LOSSES SW =           0.0000          SYSTEM LOSSES SW =           0.0000

                TOTAL IN =   403889344.0000                  TOTAL IN =          11.2200

          OUT:                                     OUT:
          ----                                     ----
               AG WELLS  =           0.0000                 AG WELLS  =           0.0000
      DIVERSION SEGMENTS =           0.0000        DIVERSION SEGMENTS =           0.0000
       IRRIGATION PONDS  =           0.0000         IRRIGATION PONDS  =           0.0000
           GW IRRIGATION =   403889344.0000             GW IRRIGATION =          11.2200
           SW IRRIGATION =           0.0000             SW IRRIGATION =           0.0000
        SYSTEM LOSSES GW =           0.0000          SYSTEM LOSSES GW =           0.0000
        SYSTEM LOSSES SW =           0.0000          SYSTEM LOSSES SW =           0.0000

               TOTAL OUT =   403889344.0000                 TOTAL OUT =          11.2200

                IN - OUT =           0.0000                  IN - OUT =           0.0000

     PERCENT DISCREPANCY =           0.00         PERCENT DISCREPANCY =           0.00



1
  VOLUMETRIC BUDGET FOR ENTIRE MODEL AT END OF TIME STEP   30, STRESS PERIOD  10
  ------------------------------------------------------------------------------

     CUMULATIVE VOLUMES      L**3       RATES FOR THIS TIME STEP      L**3/T
     ------------------                 ------------------------

           IN:                                      IN:
           ---                                      ---
             STORAGE     =   430924352.0000               STORAGE     =          19.0242
       CONSTANT HEAD     =           0.0000         CONSTANT HEAD     =           0.0000
     HEAD DEP BOUNDS     =     6839465.0000       HEAD DEP BOUNDS     =           0.2880
      STREAM LEAKAGE     =   283835616.0000        STREAM LEAKAGE     =          11.7311
        UZF RECHARGE     =       73223.9531          UZF RECHARGE     =           0.0000
               GW ET     =           0.0000                 GW ET     =           0.0000
     SURFACE LEAKAGE     =           0.0000       SURFACE LEAKAGE     =           0.0000
           AG WELLS      =           0.0000             AG WELLS      =           0.0000

                TOTAL IN =   721672640.0000                  TOTAL IN =          31.0432

          OUT:                                     OUT:
          ----                                     ----
             STORAGE     =    67968376.0000               STORAGE     =           9.1754
       CONSTANT HEAD     =           0.0000         CONSTANT HEAD     =           0.0000
     HEAD DEP BOUNDS     =     6877775.0000       HEAD DEP BOUNDS     =           0.2892
      STREAM LEAKAGE     =   242939504.0000        STREAM LEAKAGE     =          10.3586
        UZF RECHARGE     =           0.0000          UZF RECHARGE     =           0.0000
               GW ET     =           0.0000                 GW ET     =           0.0000
     SURFACE LEAKAGE     =           0.0000       SURFACE LEAKAGE     =           0.0000
           AG WELLS      =   403889344.0000             AG WELLS      =          11.2200

               TOTAL OUT =   721675008.0000                 TOTAL OUT =          31.0432

                IN - OUT =       -2368.0000                  IN - OUT =      -3.0518E-05

     PERCENT DISCREPANCY =          -0.00         PERCENT DISCREPANCY =          -0.00






         TIME SUMMARY AT END OF TIME STEP   30 IN STRESS PERIOD   10
                    SECONDS     MINUTES      HOURS       DAYS        YEARS
                    -----------------------------------------------------------
   TIME STEP LENGTH  87667.      1461.1      24.352      1.0147     2.77799E-03
 STRESS PERIOD TIME 2.63000E+06  43833.      730.56      30.440     8.33397E-02
         TOTAL TIME 2.37564E+07 3.95940E+05  6599.0      274.96     0.75279    
1
1
                            STRESS PERIOD NO.   11, LENGTH =   2630000.    
                            -----------------------------------------------

                              NUMBER OF TIME STEPS =    30

                               MULTIPLIER FOR DELT =     1.000

                            INITIAL TIME STEP SIZE =   87666.66    

 REUSING NON-PARAMETER GHB CELLS FROM LAST STRESS PERIOD

      2 GHB CELLS

 REUSING STREAM SEGMENT DATA FROM LAST STRESS PERIOD



            AREAL INFILTRATION RATE
 READING ON UNIT   19 WITH FORMAT: (FREE)              

            1           2           3           4           5           6           7           8           9          10
 ........................................................................................................................
   1   1.0000E-10  2.0000E-10   0.000       0.000       0.000       0.000       0.000       0.000       0.000       0.000    
   2   2.0000E-10  1.0000E-10  2.0000E-10   0.000       0.000      8.0000E-10  8.0000E-10  5.0000E-10   0.000       0.000    
   3    0.000      5.0000E-10  1.0000E-10  1.0000E-10  8.0000E-10  8.0000E-10  5.0000E-10  5.0000E-10   0.000       0.000    
   4   8.0000E-10  5.0000E-10  1.0000E-10  1.0000E-10  1.0000E-10  1.0000E-10  1.0000E-10  1.0000E-10  2.0000E-10   0.000    
   5   8.0000E-10  5.0000E-10  1.0000E-10  1.0000E-10  1.0000E-10  1.0000E-10  1.0000E-10  1.0000E-10  1.0000E-10  1.0000E-10
   6   8.0000E-10  5.0000E-10  5.0000E-10  2.0000E-10  2.0000E-10  1.0000E-10  1.0000E-10  1.0000E-10  1.0000E-10  5.0000E-10
   7   8.0000E-10  5.0000E-10  5.0000E-10  2.0000E-10  2.0000E-10  1.0000E-10  1.0000E-10  2.0000E-10  2.0000E-10   0.000    
   8    0.000      5.0000E-10  5.0000E-10  2.0000E-10  2.0000E-10  1.0000E-10  1.0000E-10  2.0000E-10  5.0000E-10   0.000    
   9    0.000      5.0000E-10  5.0000E-10  2.0000E-10  2.0000E-10  1.0000E-10  1.0000E-10  2.0000E-10  5.0000E-10   0.000    
  10    0.000      5.0000E-10  5.0000E-10  2.0000E-10  2.0000E-10  1.0000E-10  1.0000E-10  2.0000E-10  5.0000E-10  8.0000E-10
  11    0.000      1.0000E-10  1.0000E-10  1.0000E-10  1.0000E-10  1.0000E-10  1.0000E-10  2.0000E-10  5.0000E-10   0.000    
  12   1.0000E-10  1.0000E-10  1.0000E-10  1.0000E-10  1.0000E-10  1.0000E-10  1.0000E-10  1.0000E-10  2.0000E-10   0.000    
  13   1.0000E-10  1.0000E-10  2.0000E-10  2.0000E-10  2.0000E-10  2.0000E-10  2.0000E-10  1.0000E-10  1.0000E-10   0.000    
  14    0.000      2.0000E-10  5.0000E-10  5.0000E-10  5.0000E-10  5.0000E-10  5.0000E-10  2.0000E-10  1.0000E-10   0.000    
  15    0.000       0.000      8.0000E-10  8.0000E-10  8.0000E-10  8.0000E-10   0.000       0.000       0.000       0.000    

                  ET RATE =  5.000000E-09

 USING ET EXTINCTION DEPTH FROM PREVIOUS STRESS PERIOD. CURRENT PERIOD IS:      11

 USING EXTINCTION WATER CONTENT FROM PREVIOUS STRESS PERIOD. CURRENT PERIOD IS:      11

 USING AIR ENTRY PRESSURE FROM PREVIOUS STRESS PERIOD. CURRENT PERIOD IS:      11

 USING ROOT PRESSURE HEAD FROM PREVIOUS STRESS PERIOD. CURRENT PERIOD IS:      11

 USING ROOT ACTIVITY FROM PREVIOUS STRESS PERIOD. CURRENT PERIOD IS:      11

 PROCESSING AG STRESS PERIOD DATA

 READING AG STRESS PERIOD DATA

 READING IRRIGATION SEGMENT

 READING IRRIGATION WELL

 READING SUPPLEMENTAL WELL

 NO IRRPOND OR REUSING IRRPOND DATA FROM LAST STRESS PERIOD

 END PROCESSING AG STRESS PERIOD DATA OPTIONS
 
 SOLVING FOR HEAD 
                                                   Max.-Head-Change                         Max.-Flux-Residual
  Residual-Control   Outer-Iter.   Inner-Iter.     Column Row Layer    Maximum-Head-Change  Column Row Layer    Maximum-Flux-Residual          L2-NORM 
          0                 1           2             4    7     1       0.7271062293E-01       4    7    1         0.3818071771E+01      0.8735830290E+01
          0                 2           2             4    7     1      -0.7072813471E-02       4    7    1        -0.3818107822E+00      0.8735766095E+00
          0                 3           2             4    7     1       0.4816318624E-03       4    7    1         0.2672673218E-01      0.6114995299E-01
          0                 4           1             4    7     1      -0.1916458452E-04       4    7    1        -0.1093125016E-02      0.2501017784E-02

    ------------------------------------------------
       NWT REQUIRED            4 OUTER ITERATIONS 
       AND A TOTAL OF          7 INNER ITERATIONS.
    ------------------------------------------------

 NO OUTPUT CONTROL FOR STRESS PERIOD   11   TIME STEP    1
 
 SOLVING FOR HEAD 
                                                   Max.-Head-Change                         Max.-Flux-Residual
  Residual-Control   Outer-Iter.   Inner-Iter.     Column Row Layer    Maximum-Head-Change  Column Row Layer    Maximum-Flux-Residual          L2-NORM 
          0                 1           2             4    7     1       0.7192409382E-01       4    7    1         0.3777849156E+01      0.8561838924E+01
          0                 2           2             4    7     1      -0.6996307776E-02       4    7    1        -0.3777886623E+00      0.8561703203E+00
          0                 3           2             4    7     1       0.4764220877E-03       4    7    1         0.2644518235E-01      0.5993095361E-01
          0                 4           1             4    7     1      -0.1895728300E-04       4    7    1        -0.1081609623E-02      0.2451098947E-02

    ------------------------------------------------
       NWT REQUIRED            4 OUTER ITERATIONS 
       AND A TOTAL OF          7 INNER ITERATIONS.
    ------------------------------------------------

 NO OUTPUT CONTROL FOR STRESS PERIOD   11   TIME STEP    2
 
 SOLVING FOR HEAD 
                                                   Max.-Head-Change                         Max.-Flux-Residual
  Residual-Control   Outer-Iter.   Inner-Iter.     Column Row Layer    Maximum-Head-Change  Column Row Layer    Maximum-Flux-Residual          L2-NORM 
          0                 1           2             4    7     1       0.7112696903E-01       4    7    1         0.3736982221E+01      0.8389493232E+01
          0                 2           2             4    7     1      -0.6918771063E-02       4    7    1        -0.3737020871E+00      0.8389395837E+00
          0                 3           2             4    7     1       0.4711421073E-03       4    7    1         0.2615912082E-01      0.5872478030E-01
          0                 4           1             4    7     1      -0.1874718768E-04       4    7    1        -0.1069909709E-02      0.2401808179E-02

    ------------------------------------------------
       NWT REQUIRED            4 OUTER ITERATIONS 
       AND A TOTAL OF          7 INNER ITERATIONS.
    ------------------------------------------------

 NO OUTPUT CONTROL FOR STRESS PERIOD   11   TIME STEP    3
 
 SOLVING FOR HEAD 
                                                   Max.-Head-Change                         Max.-Flux-Residual
  Residual-Control   Outer-Iter.   Inner-Iter.     Column Row Layer    Maximum-Head-Change  Column Row Layer    Maximum-Flux-Residual          L2-NORM 
          0                 1           2             4    7     1       0.7032110154E-01       4    7    1         0.3695573142E+01      0.8223604613E+01
          0                 2           2             4    7     1      -0.6840383605E-02       4    7    1        -0.3695612764E+00      0.8223500130E+00
          0                 3           2             4    7     1       0.4658041976E-03       4    7    1         0.2586926303E-01      0.5756359462E-01
          0                 4           1             4    7     1      -0.1853478727E-04       4    7    1        -0.1058054507E-02      0.2354288338E-02

    ------------------------------------------------
       NWT REQUIRED            4 OUTER ITERATIONS 
       AND A TOTAL OF          7 INNER ITERATIONS.
    ------------------------------------------------

 NO OUTPUT CONTROL FOR STRESS PERIOD   11   TIME STEP    4
 
 SOLVING FOR HEAD 
                                                   Max.-Head-Change                         Max.-Flux-Residual
  Residual-Control   Outer-Iter.   Inner-Iter.     Column Row Layer    Maximum-Head-Change  Column Row Layer    Maximum-Flux-Residual          L2-NORM 
          0                 1           2             4    7     1       0.6950782138E-01       4    7    1         0.3653696222E+01      0.8063754941E+01
          0                 2           2             4    7     1      -0.6761274809E-02       4    7    1        -0.3653736622E+00      0.8063664160E+00
          0                 3           2             4    7     1       0.4604171702E-03       4    7    1         0.2557612917E-01      0.5644476487E-01
          0                 4           1             4    7     1      -0.1832043280E-04       4    7    1        -0.1046065318E-02      0.2308501106E-02

    ------------------------------------------------
       NWT REQUIRED            4 OUTER ITERATIONS 
       AND A TOTAL OF          7 INNER ITERATIONS.
    ------------------------------------------------

 NO OUTPUT CONTROL FOR STRESS PERIOD   11   TIME STEP    5
 
 SOLVING FOR HEAD 
                                                   Max.-Head-Change                         Max.-Flux-Residual
  Residual-Control   Outer-Iter.   Inner-Iter.     Column Row Layer    Maximum-Head-Change  Column Row Layer    Maximum-Flux-Residual          L2-NORM 
          0                 1           2             4    7     1       0.6868876878E-01       4    7    1         0.3611442193E+01      0.7909611547E+01
          0                 2           2             4    7     1      -0.6681604250E-02       4    7    1        -0.3611483198E+00      0.7909532757E+00
          0                 3           2             4    7     1       0.4549918913E-03       4    7    1         0.2528035450E-01      0.5536595227E-01
          0                 4           1             4    7     1      -0.1810455543E-04       4    7    1        -0.1033968111E-02      0.2264378580E-02

    ------------------------------------------------
       NWT REQUIRED            4 OUTER ITERATIONS 
       AND A TOTAL OF          7 INNER ITERATIONS.
    ------------------------------------------------

 NO OUTPUT CONTROL FOR STRESS PERIOD   11   TIME STEP    6
 
 SOLVING FOR HEAD 
                                                   Max.-Head-Change                         Max.-Flux-Residual
  Residual-Control   Outer-Iter.   Inner-Iter.     Column Row Layer    Maximum-Head-Change  Column Row Layer    Maximum-Flux-Residual          L2-NORM 
          0                 1           2             4    7     1       0.6786534059E-01       4    7    1         0.3568888841E+01      0.7760845371E+01
          0                 2           2             4    7     1      -0.6601507830E-02       4    7    1        -0.3568930293E+00      0.7760777374E+00
          0                 3           2             4    7     1       0.4495376156E-03       4    7    1         0.2498248362E-01      0.5432485416E-01
          0                 4           1             4    7     1      -0.1788752517E-04       4    7    1        -0.1021785195E-02      0.2221905524E-02

    ------------------------------------------------
       NWT REQUIRED            4 OUTER ITERATIONS 
       AND A TOTAL OF          7 INNER ITERATIONS.
    ------------------------------------------------

 NO OUTPUT CONTROL FOR STRESS PERIOD   11   TIME STEP    7
 
 SOLVING FOR HEAD 
                                                   Max.-Head-Change                         Max.-Flux-Residual
  Residual-Control   Outer-Iter.   Inner-Iter.     Column Row Layer    Maximum-Head-Change  Column Row Layer    Maximum-Flux-Residual          L2-NORM 
          0                 1           2             4    7     1       0.6703883539E-01       4    7    1         0.3526108591E+01      0.7617149192E+01
          0                 2           2             4    7     1      -0.6521111889E-02       4    7    1        -0.3526150348E+00      0.7617090187E+00
          0                 3           2             4    7     1       0.4440629450E-03       4    7    1         0.2468302359E-01      0.5331904478E-01
          0                 4           1             4    7     1      -0.1766968245E-04       4    7    1        -0.1009537242E-02      0.2180716027E-02

    ------------------------------------------------
       NWT REQUIRED            4 OUTER ITERATIONS 
       AND A TOTAL OF          7 INNER ITERATIONS.
    ------------------------------------------------

 NO OUTPUT CONTROL FOR STRESS PERIOD   11   TIME STEP    8
 
 SOLVING FOR HEAD 
                                                   Max.-Head-Change                         Max.-Flux-Residual
  Residual-Control   Outer-Iter.   Inner-Iter.     Column Row Layer    Maximum-Head-Change  Column Row Layer    Maximum-Flux-Residual          L2-NORM 
          0                 1           2             4    7     1       0.6621046219E-01       4    7    1         0.3483168772E+01      0.7478247531E+01
          0                 2           2             4    7     1      -0.6440534050E-02       4    7    1        -0.3483210707E+00      0.7478196488E+00
          0                 3           2             4    7     1       0.4385758903E-03       4    7    1         0.2438244581E-01      0.5234683040E-01
          0                 4           1             4    7     1      -0.1745134756E-04       4    7    1        -0.9972436021E-03      0.2140945699E-02

    ------------------------------------------------
       NWT REQUIRED            4 OUTER ITERATIONS 
       AND A TOTAL OF          7 INNER ITERATIONS.
    ------------------------------------------------

 NO OUTPUT CONTROL FOR STRESS PERIOD   11   TIME STEP    9
 
 SOLVING FOR HEAD 
                                                   Max.-Head-Change                         Max.-Flux-Residual
  Residual-Control   Outer-Iter.   Inner-Iter.     Column Row Layer    Maximum-Head-Change  Column Row Layer    Maximum-Flux-Residual          L2-NORM 
          0                 1           2             4    7     1       0.6538120749E-01       4    7    1         0.3440124807E+01      0.7343881687E+01
          0                 2           2             4    7     1      -0.6359870295E-02       4    7    1        -0.3440166805E+00      0.7343837842E+00
          0                 3           2             4    7     1       0.4330829865E-03       4    7    1         0.2408113829E-01      0.5140637609E-01
          0                 4           1             4    7     1      -0.1723278023E-04       4    7    1        -0.9849201106E-03      0.2102532511E-02

    ------------------------------------------------
       NWT REQUIRED            4 OUTER ITERATIONS 
       AND A TOTAL OF          7 INNER ITERATIONS.
    ------------------------------------------------

 NO OUTPUT CONTROL FOR STRESS PERIOD   11   TIME STEP   10
 
 SOLVING FOR HEAD 
                                                   Max.-Head-Change                         Max.-Flux-Residual
  Residual-Control   Outer-Iter.   Inner-Iter.     Column Row Layer    Maximum-Head-Change  Column Row Layer    Maximum-Flux-Residual          L2-NORM 
          0                 1           2             4    7     1       0.6455224846E-01       4    7    1         0.3397042371E+01      0.7213812285E+01
          0                 2           2             4    7     1      -0.6279235146E-02       4    7    1        -0.3397084329E+00      0.7213774257E+00
          0                 3           2             4    7     1       0.4275920324E-03       4    7    1         0.2377956089E-01      0.5049597944E-01
          0                 4           1             4    7     1      -0.1701428968E-04       4    7    1        -0.9725855773E-03      0.2065264125E-02

    ------------------------------------------------
       NWT REQUIRED            4 OUTER ITERATIONS 
       AND A TOTAL OF          7 INNER ITERATIONS.
    ------------------------------------------------

 NO OUTPUT CONTROL FOR STRESS PERIOD   11   TIME STEP   11
 
 SOLVING FOR HEAD 
                                                   Max.-Head-Change                         Max.-Flux-Residual
  Residual-Control   Outer-Iter.   Inner-Iter.     Column Row Layer    Maximum-Head-Change  Column Row Layer    Maximum-Flux-Residual          L2-NORM 
          0                 1           2             4    7     1       0.6372440711E-01       4    7    1         0.3353967969E+01      0.7087810884E+01
          0                 2           2             4    7     1      -0.6198708580E-02       4    7    1        -0.3354009795E+00      0.7087778763E+00
          0                 3           2             4    7     1       0.4221084733E-03       4    7    1         0.2347803913E-01      0.4961404022E-01
          0                 4           1             4    7     1      -0.1679609387E-04       4    7    1        -0.9602533105E-03      0.2029190290E-02

    ------------------------------------------------
       NWT REQUIRED            4 OUTER ITERATIONS 
       AND A TOTAL OF          7 INNER ITERATIONS.
    ------------------------------------------------

 NO OUTPUT CONTROL FOR STRESS PERIOD   11   TIME STEP   12
 
 SOLVING FOR HEAD 
                                                   Max.-Head-Change                         Max.-Flux-Residual
  Residual-Control   Outer-Iter.   Inner-Iter.     Column Row Layer    Maximum-Head-Change  Column Row Layer    Maximum-Flux-Residual          L2-NORM 
          0                 1           2             4    7     1       0.6289870454E-01       4    7    1         0.3310958754E+01      0.6965685108E+01
          0                 2           2             4    7     1      -0.6118389936E-02       4    7    1        -0.3311000367E+00      0.6965657788E+00
          0                 3           2             4    7     1       0.4166390740E-03       4    7    1         0.2317697319E-01      0.4875923069E-01
          0                 4           1             4    7     1      -0.1657846103E-04       4    7    1        -0.9479396888E-03      0.1994238200E-02

    ------------------------------------------------
       NWT REQUIRED            4 OUTER ITERATIONS 
       AND A TOTAL OF          7 INNER ITERATIONS.
    ------------------------------------------------

 NO OUTPUT CONTROL FOR STRESS PERIOD   11   TIME STEP   13
 
 SOLVING FOR HEAD 
                                                   Max.-Head-Change                         Max.-Flux-Residual
  Residual-Control   Outer-Iter.   Inner-Iter.     Column Row Layer    Maximum-Head-Change  Column Row Layer    Maximum-Flux-Residual          L2-NORM 
          0                 1           2             4    7     1       0.6207595352E-01       4    7    1         0.3268060403E+01      0.6847233798E+01
          0                 2           2             4    7     1      -0.6038358290E-02       4    7    1        -0.3268101730E+00      0.6847210614E+00
          0                 3           2             4    7     1       0.4111892202E-03       4    7    1         0.2287668289E-01      0.4793020245E-01
          0                 4           1             4    7     1      -0.1636160657E-04       4    7    1        -0.9356578257E-03      0.1960418402E-02

    ------------------------------------------------
       NWT REQUIRED            4 OUTER ITERATIONS 
       AND A TOTAL OF          7 INNER ITERATIONS.
    ------------------------------------------------

 NO OUTPUT CONTROL FOR STRESS PERIOD   11   TIME STEP   14
 
 SOLVING FOR HEAD 
                                                   Max.-Head-Change                         Max.-Flux-Residual
  Residual-Control   Outer-Iter.   Inner-Iter.     Column Row Layer    Maximum-Head-Change  Column Row Layer    Maximum-Flux-Residual          L2-NORM 
          0                 1           2             4    7     1       0.6125690009E-01       4    7    1         0.3225315057E+01      0.6732288943E+01
          0                 2           2             4    7     1      -0.5958686225E-02       4    7    1        -0.3225356034E+00      0.6732269749E+00
          0                 3           2             4    7     1       0.4057638525E-03       4    7    1         0.2257746322E-01      0.4712557882E-01
          0                 4           1             4    7     1      -0.1614572620E-04       4    7    1        -0.9234197125E-03      0.1927425323E-02

    ------------------------------------------------
       NWT REQUIRED            4 OUTER ITERATIONS 
       AND A TOTAL OF          7 INNER ITERATIONS.
    ------------------------------------------------

 NO OUTPUT CONTROL FOR STRESS PERIOD   11   TIME STEP   15
 
 SOLVING FOR HEAD 
                                                   Max.-Head-Change                         Max.-Flux-Residual
  Residual-Control   Outer-Iter.   Inner-Iter.     Column Row Layer    Maximum-Head-Change  Column Row Layer    Maximum-Flux-Residual          L2-NORM 
          0                 1           2             4    7     1       0.6044209040E-01       4    7    1         0.3182754129E+01      0.6620677451E+01
          0                 2           2             4    7     1      -0.5879426873E-02       4    7    1        -0.3182794700E+00      0.6620661342E+00
          0                 3           2             4    7     1       0.4003665903E-03       4    7    1         0.2227953414E-01      0.4634434142E-01
          0                 4           1             4    7     1      -0.1593096360E-04       4    7    1        -0.9112343801E-03      0.1895466941E-02

    ------------------------------------------------
       NWT REQUIRED            4 OUTER ITERATIONS 
       AND A TOTAL OF          7 INNER ITERATIONS.
    ------------------------------------------------

 NO OUTPUT CONTROL FOR STRESS PERIOD   11   TIME STEP   16
 
 SOLVING FOR HEAD 
                                                   Max.-Head-Change                         Max.-Flux-Residual
  Residual-Control   Outer-Iter.   Inner-Iter.     Column Row Layer    Maximum-Head-Change  Column Row Layer    Maximum-Flux-Residual          L2-NORM 
          0                 1           2             4    7     1       0.5963228375E-01       4    7    1         0.3140420474E+01      0.6512236098E+01
          0                 2           2             4    7     1      -0.5800654108E-02       4    7    1        -0.3140460589E+00      0.6512222805E+00
          0                 3           2             4    7     1       0.3950024635E-03       4    7    1         0.2198319567E-01      0.4558528580E-01
          0                 4           1             4    7     1      -0.1571752002E-04       4    7    1        -0.8991141171E-03      0.1864427919E-02

    ------------------------------------------------
       NWT REQUIRED            4 OUTER ITERATIONS 
       AND A TOTAL OF          7 INNER ITERATIONS.
    ------------------------------------------------

 NO OUTPUT CONTROL FOR STRESS PERIOD   11   TIME STEP   17
 
 SOLVING FOR HEAD 
                                                   Max.-Head-Change                         Max.-Flux-Residual
  Residual-Control   Outer-Iter.   Inner-Iter.     Column Row Layer    Maximum-Head-Change  Column Row Layer    Maximum-Flux-Residual          L2-NORM 
          0                 1           2             4    7     1       0.5882818415E-01       4    7    1         0.3098353464E+01      0.6406838407E+01
          0                 2           2             4    7     1      -0.5722436420E-02       4    7    1        -0.3098393081E+00      0.6406827538E+00
          0                 3           2             4    7     1       0.3896761361E-03       4    7    1         0.2168872344E-01      0.4484753880E-01
          0                 4           1             4    7     1      -0.1550558093E-04       4    7    1        -0.8870702088E-03      0.1834245453E-02

    ------------------------------------------------
       NWT REQUIRED            4 OUTER ITERATIONS 
       AND A TOTAL OF          7 INNER ITERATIONS.
    ------------------------------------------------

 NO OUTPUT CONTROL FOR STRESS PERIOD   11   TIME STEP   18
 
 SOLVING FOR HEAD 
                                                   Max.-Head-Change                         Max.-Flux-Residual
  Residual-Control   Outer-Iter.   Inner-Iter.     Column Row Layer    Maximum-Head-Change  Column Row Layer    Maximum-Flux-Residual          L2-NORM 
          0                 1           2             4    7     1       0.5803002905E-01       4    7    1         0.3056567787E+01      0.6304339269E+01
          0                 2           2             4    7     1      -0.5655655004E-02       4    7    1        -0.3063811456E+00      0.6305170478E+00
          0                 3           2             4    7     1       0.3851285327E-03       4    7    1         0.2144664948E-01      0.4413596913E-01
          0                 4           1             4    7     1      -0.1532462752E-04       4    7    1        -0.8771693738E-03      0.1805161183E-02

    ------------------------------------------------
       NWT REQUIRED            4 OUTER ITERATIONS 
       AND A TOTAL OF          7 INNER ITERATIONS.
    ------------------------------------------------

 NO OUTPUT CONTROL FOR STRESS PERIOD   11   TIME STEP   19
 
 SOLVING FOR HEAD 
                                                   Max.-Head-Change                         Max.-Flux-Residual
  Residual-Control   Outer-Iter.   Inner-Iter.     Column Row Layer    Maximum-Head-Change  Column Row Layer    Maximum-Flux-Residual          L2-NORM 
          0                 1           2             4    7     1       0.5720887055E-01       4    7    1         0.3014518803E+01      0.6204544470E+01
          0                 2           2             4    7     1      -0.5564923354E-02       4    7    1        -0.3014559841E+00      0.6204538338E+00
          0                 3           2             4    7     1       0.3789500609E-03       4    7    1         0.2110188917E-01      0.4343156179E-01
          0                 4           1             4    7     1      -0.1507878047E-04       4    7    1        -0.8630686609E-03      0.1776336355E-02

    ------------------------------------------------
       NWT REQUIRED            4 OUTER ITERATIONS 
       AND A TOTAL OF          7 INNER ITERATIONS.
    ------------------------------------------------

 NO OUTPUT CONTROL FOR STRESS PERIOD   11   TIME STEP   20
 
 SOLVING FOR HEAD 
                                                   Max.-Head-Change                         Max.-Flux-Residual
  Residual-Control   Outer-Iter.   Inner-Iter.     Column Row Layer    Maximum-Head-Change  Column Row Layer    Maximum-Flux-Residual          L2-NORM 
          0                 1           2             4    7     1       0.5640692731E-01       4    7    1         0.2972434420E+01      0.6107336001E+01
          0                 2           2             4    7     1      -0.5486915150E-02       4    7    1        -0.2972474775E+00      0.6107331470E+00
          0                 3           2             4    7     1       0.3736380010E-03       4    7    1         0.2080729423E-01      0.4275112114E-01
          0                 4           1             4    7     1      -0.1486740838E-04       4    7    1        -0.8510196940E-03      0.1748516570E-02

    ------------------------------------------------
       NWT REQUIRED            4 OUTER ITERATIONS 
       AND A TOTAL OF          7 INNER ITERATIONS.
    ------------------------------------------------

 NO OUTPUT CONTROL FOR STRESS PERIOD   11   TIME STEP   21
 
 SOLVING FOR HEAD 
                                                   Max.-Head-Change                         Max.-Flux-Residual
  Residual-Control   Outer-Iter.   Inner-Iter.     Column Row Layer    Maximum-Head-Change  Column Row Layer    Maximum-Flux-Residual          L2-NORM 
          0                 1           2             4    7     1       0.5561336953E-01       4    7    1         0.2930767736E+01      0.6012668721E+01
          0                 2           2             4    7     1      -0.5409722591E-02       4    7    1        -0.2930807387E+00      0.6012665525E+00
          0                 3           2             4    7     1       0.3683814839E-03       4    7    1         0.2051562305E-01      0.4208848462E-01
          0                 4           1             4    7     1      -0.1465824652E-04       4    7    1        -0.8390903272E-03      0.1721416880E-02

    ------------------------------------------------
       NWT REQUIRED            4 OUTER ITERATIONS 
       AND A TOTAL OF          7 INNER ITERATIONS.
    ------------------------------------------------

 NO OUTPUT CONTROL FOR STRESS PERIOD   11   TIME STEP   22
 
 SOLVING FOR HEAD 
                                                   Max.-Head-Change                         Max.-Flux-Residual
  Residual-Control   Outer-Iter.   Inner-Iter.     Column Row Layer    Maximum-Head-Change  Column Row Layer    Maximum-Flux-Residual          L2-NORM 
          0                 1           2             4    7     1       0.5482861711E-01       4    7    1         0.2889543078E+01      0.5920448384E+01
          0                 2           2             4    7     1      -0.5333386527E-02       4    7    1        -0.2889582007E+00      0.5920446600E+00
          0                 3           2             4    7     1       0.3631832911E-03       4    7    1         0.2022704595E-01      0.4144295319E-01
          0                 4           1             4    7     1      -0.1445140562E-04       4    7    1        -0.8272875052E-03      0.1695018956E-02

    ------------------------------------------------
       NWT REQUIRED            4 OUTER ITERATIONS 
       AND A TOTAL OF          7 INNER ITERATIONS.
    ------------------------------------------------

 NO OUTPUT CONTROL FOR STRESS PERIOD   11   TIME STEP   23
 
 SOLVING FOR HEAD 
                                                   Max.-Head-Change                         Max.-Flux-Residual
  Residual-Control   Outer-Iter.   Inner-Iter.     Column Row Layer    Maximum-Head-Change  Column Row Layer    Maximum-Flux-Residual          L2-NORM 
          0                 1           2             4    7     1       0.5405264824E-01       4    7    1         0.2848760390E+01      0.5830567365E+01
          0                 2           2             4    7     1      -0.5257904842E-02       4    7    1        -0.2848798583E+00      0.5830566519E+00
          0                 3           2             4    7     1       0.3580432789E-03       4    7    1         0.1994156256E-01      0.4081379874E-01
          0                 4           1             4    7     1      -0.1424687971E-04       4    7    1        -0.8156112169E-03      0.1669281877E-02

    ------------------------------------------------
       NWT REQUIRED            4 OUTER ITERATIONS 
       AND A TOTAL OF          7 INNER ITERATIONS.
    ------------------------------------------------

 NO OUTPUT CONTROL FOR STRESS PERIOD   11   TIME STEP   24
 
 SOLVING FOR HEAD 
                                                   Max.-Head-Change                         Max.-Flux-Residual
  Residual-Control   Outer-Iter.   Inner-Iter.     Column Row Layer    Maximum-Head-Change  Column Row Layer    Maximum-Flux-Residual          L2-NORM 
          0                 1           2             4    7     1       0.5328595774E-01       4    7    1         0.2808447646E+01      0.5742942775E+01
          0                 2           2             4    7     1      -0.5183325675E-02       4    7    1        -0.2808485095E+00      0.5742942633E+00
          0                 3           2             4    7     1       0.3529647247E-03       4    7    1         0.1965936873E-01      0.4020043938E-01
          0                 4           1             4    7     1      -0.1404479923E-04       4    7    1        -0.8040694640E-03      0.1644191218E-02

    ------------------------------------------------
       NWT REQUIRED            4 OUTER ITERATIONS 
       AND A TOTAL OF          7 INNER ITERATIONS.
    ------------------------------------------------

 NO OUTPUT CONTROL FOR STRESS PERIOD   11   TIME STEP   25
 
 SOLVING FOR HEAD 
                                                   Max.-Head-Change                         Max.-Flux-Residual
  Residual-Control   Outer-Iter.   Inner-Iter.     Column Row Layer    Maximum-Head-Change  Column Row Layer    Maximum-Flux-Residual          L2-NORM 
          0                 1           2             4    7     1       0.5252872124E-01       4    7    1         0.2768615952E+01      0.5657475873E+01
          0                 2           2             4    7     1      -0.5109666114E-02       4    7    1        -0.2768652649E+00      0.5657476603E+00
          0                 3           2             4    7     1       0.3479487921E-03       4    7    1         0.1938054220E-01      0.3960218687E-01
          0                 4           1             4    7     1      -0.1384521045E-04       4    7    1        -0.7926654293E-03      0.1619745065E-02

    ------------------------------------------------
       NWT REQUIRED            4 OUTER ITERATIONS 
       AND A TOTAL OF          7 INNER ITERATIONS.
    ------------------------------------------------

 NO OUTPUT CONTROL FOR STRESS PERIOD   11   TIME STEP   26
 
 SOLVING FOR HEAD 
                                                   Max.-Head-Change                         Max.-Flux-Residual
  Residual-Control   Outer-Iter.   Inner-Iter.     Column Row Layer    Maximum-Head-Change  Column Row Layer    Maximum-Flux-Residual          L2-NORM 
          0                 1           2             4    7     1       0.5178096178E-01       4    7    1         0.2729267135E+01      0.5574099331E+01
          0                 2           2             4    7     1      -0.5036928401E-02       4    7    1        -0.2729303074E+00      0.5574100605E+00
          0                 3           2             4    7     1       0.3429956346E-03       4    7    1         0.1910509577E-01      0.3901856206E-01
          0                 4           1             4    7     1      -0.1364811960E-04       4    7    1        -0.7813996606E-03      0.1595859353E-02

    ------------------------------------------------
       NWT REQUIRED            4 OUTER ITERATIONS 
       AND A TOTAL OF          7 INNER ITERATIONS.
    ------------------------------------------------

 NO OUTPUT CONTROL FOR STRESS PERIOD   11   TIME STEP   27
 
 SOLVING FOR HEAD 
                                                   Max.-Head-Change                         Max.-Flux-Residual
  Residual-Control   Outer-Iter.   Inner-Iter.     Column Row Layer    Maximum-Head-Change  Column Row Layer    Maximum-Flux-Residual          L2-NORM 
          0                 1           2             4    7     1       0.5104307778E-01       4    7    1         0.2690424227E+01      0.5492727770E+01
          0                 2           2             4    7     1      -0.4965151299E-02       4    7    1        -0.2690459408E+00      0.5492729459E+00
          0                 3           2             4    7     1       0.3381078909E-03       4    7    1         0.1883319070E-01      0.3844896149E-01
          0                 4           1             4    7     1      -0.1345363166E-04       4    7    1        -0.7702787268E-03      0.1572555649E-02

    ------------------------------------------------
       NWT REQUIRED            4 OUTER ITERATIONS 
       AND A TOTAL OF          7 INNER ITERATIONS.
    ------------------------------------------------

 NO OUTPUT CONTROL FOR STRESS PERIOD   11   TIME STEP   28
 
 SOLVING FOR HEAD 
                                                   Max.-Head-Change                         Max.-Flux-Residual
  Residual-Control   Outer-Iter.   Inner-Iter.     Column Row Layer    Maximum-Head-Change  Column Row Layer    Maximum-Flux-Residual          L2-NORM 
          0                 1           2             4    7     1       0.5031489506E-01       4    7    1         0.2652078767E+01      0.5413290195E+01
          0                 2           2             4    7     1      -0.4894317866E-02       4    7    1        -0.2652113189E+00      0.5413292061E+00
          0                 3           2             4    7     1       0.3332844075E-03       4    7    1         0.1856476776E-01      0.3789286866E-01
          0                 4           1             4    7     1      -0.1326170083E-04       4    7    1        -0.7593002135E-03      0.1549810087E-02

    ------------------------------------------------
       NWT REQUIRED            4 OUTER ITERATIONS 
       AND A TOTAL OF          7 INNER ITERATIONS.
    ------------------------------------------------

 NO OUTPUT CONTROL FOR STRESS PERIOD   11   TIME STEP   29
 
 SOLVING FOR HEAD 
                                                   Max.-Head-Change                         Max.-Flux-Residual
  Residual-Control   Outer-Iter.   Inner-Iter.     Column Row Layer    Maximum-Head-Change  Column Row Layer    Maximum-Flux-Residual          L2-NORM 
          0                 1           2             4    7     1       0.4959663398E-01       4    7    1         0.2614243566E+01      0.5335719662E+01
          0                 2           2             4    7     1      -0.4824449541E-02       4    7    1        -0.2614277230E+00      0.5335720687E+00
          0                 3           2             4    7     1       0.3285266444E-03       4    7    1         0.1829991667E-01      0.3734991939E-01
          0                 4           1             4    7     1      -0.1307238477E-04       4    7    1        -0.7484677801E-03      0.1527609733E-02

    ------------------------------------------------
       NWT REQUIRED            4 OUTER ITERATIONS 
       AND A TOTAL OF          7 INNER ITERATIONS.
    ------------------------------------------------

 NO OUTPUT CONTROL FOR STRESS PERIOD   11   TIME STEP   30



 STREAM LISTING     PERIOD     11   STEP       30

 LAYER ROW COL. STREAM  RCH.  FLOW INTO     FLOW TO   FLOW OUT OF   OVRLND.     DIRECT     STREAM       STREAM     STREAM     STREAM   STREAMBED  STREAMBED
                SEG.NO.  NO.  STRM. RCH.    AQUIFER    STRM. RCH.    RUNOFF     PRECIP       ET          HEAD       DEPTH      WIDTH   CONDCTNC.   GRADIENT

   1    1    1     1     1    1.3125E+01  1.7336E-01   1.2952E+01  0.000E+00  0.000E+00  0.000E+00  1.09402E+03  9.718E-01  9.699E+00  4.365E-02  1.324E+00
   1    2    2     1     2    1.2952E+01  2.6707E-01   1.2684E+01  0.000E+00  0.000E+00  0.000E+00  1.08903E+03  9.671E-01  9.617E+00  6.732E-02  1.322E+00
   1    3    3     1     3    1.2684E+01  2.2641E-01   1.2458E+01  0.000E+00  0.000E+00  0.000E+00  1.08338E+03  9.616E-01  9.525E+00  5.715E-02  1.321E+00
   1    3    4     1     4    1.2458E+01  2.0737E-01   1.2251E+01  0.000E+00  0.000E+00  0.000E+00  1.07836E+03  9.568E-01  9.443E+00  5.241E-02  1.319E+00
   1    4    5     2     1    1.0251E+01  2.8870E-01   9.9620E+00  0.000E+00  0.000E+00  0.000E+00  1.07264E+03  7.013E-01  1.200E+01  7.800E-02  1.234E+00
   1    5    6     2     2    9.9620E+00  2.2144E-01   9.7406E+00  0.000E+00  0.000E+00  0.000E+00  1.06720E+03  6.906E-01  1.200E+01  6.000E-02  1.230E+00
   1    6    6     2     3    9.7406E+00  2.2088E-01   9.5197E+00  0.000E+00  0.000E+00  0.000E+00  1.06247E+03  6.813E-01  1.200E+01  6.000E-02  1.227E+00
   1    7    6     2     4    9.5197E+00  2.2031E-01   9.2994E+00  0.000E+00  0.000E+00  0.000E+00  1.05775E+03  6.719E-01  1.200E+01  6.000E-02  1.224E+00
   1    8    6     2     5    9.2994E+00  2.1974E-01   9.0796E+00  0.000E+00  0.000E+00  0.000E+00  1.05302E+03  6.624E-01  1.200E+01  6.000E-02  1.221E+00
   1    3    5     3     1    2.0000E+00  2.8252E-01   1.7175E+00  0.000E+00  0.000E+00  0.000E+00  1.07555E+03  1.909E+00  9.636E+00  7.227E-02  1.955E+00
   1    3    6     3     2    1.7175E+00  2.4905E-01   1.4684E+00  0.000E+00  0.000E+00  0.000E+00  1.07264E+03  1.727E+00  8.909E+00  6.682E-02  1.864E+00
   1    3    7     3     3    1.4684E+00  1.9718E-01   1.2712E+00  0.000E+00  0.000E+00  0.000E+00  1.06987E+03  1.555E+00  8.218E+00  5.547E-02  1.777E+00
   1    4    8     3     4    1.2712E+00  2.2567E-01   1.0456E+00  0.000E+00  0.000E+00  0.000E+00  1.06682E+03  1.364E+00  7.455E+00  6.709E-02  1.682E+00
   1    5    8     3     5    1.0456E+00  1.5790E-01   8.8768E-01  0.000E+00  0.000E+00  0.000E+00  1.06362E+03  1.164E+00  6.655E+00  4.991E-02  1.582E+00
   1    6    8     3     6    8.8768E-01  5.5980E-02   8.3170E-01  0.000E+00  0.000E+00  0.000E+00  1.06158E+03  1.036E+00  6.145E+00  1.844E-02  1.518E+00
   1    5   10     4     1    1.0000E+01  9.0919E-02   9.9091E+00  0.000E+00  0.000E+00  0.000E+00  1.07836E+03  6.368E-01  1.000E+01  2.500E-02  1.212E+00
   1    5    9     4     2    9.9091E+00  1.8158E-01   9.7275E+00  0.000E+00  0.000E+00  0.000E+00  1.07154E+03  6.315E-01  1.000E+01  5.000E-02  1.211E+00
   1    6    8     4     3    9.7275E+00  1.2689E-01   9.6006E+00  0.000E+00  0.000E+00  0.000E+00  1.06381E+03  6.256E-01  1.000E+01  3.500E-02  1.209E+00
   1    6    8     5     1    1.0432E+01  2.2686E-01   1.0205E+01  0.000E+00  0.000E+00  0.000E+00  1.05868E+03  6.790E-01  1.542E+01  6.166E-02  1.226E+00
   1    7    7     5     2    1.0205E+01  2.7894E-01   9.9265E+00  0.000E+00  0.000E+00  0.000E+00  1.05417E+03  6.732E-01  1.519E+01  7.594E-02  1.224E+00
   1    8    7     5     3    9.9265E+00  1.9221E-01   9.7343E+00  0.000E+00  0.000E+00  0.000E+00  1.04992E+03  6.676E-01  1.497E+01  5.241E-02  1.223E+00
   1    8    6     5     4    9.7343E+00  1.3577E-01   9.5985E+00  0.000E+00  0.000E+00  0.000E+00  1.04691E+03  6.637E-01  1.482E+01  3.706E-02  1.221E+00
   1    9    6     6     1    1.8678E+01  2.4127E-01   1.8437E+01  0.000E+00  0.000E+00  0.000E+00  1.04375E+03  1.021E+00  1.200E+01  6.000E-02  1.340E+00
   1   10    7     6     2    1.8437E+01  2.4079E-01   1.8196E+01  0.000E+00  0.000E+00  0.000E+00  1.03919E+03  1.013E+00  1.200E+01  6.000E-02  1.338E+00
   1   11    7     6     3    1.8196E+01  2.4031E-01   1.7956E+01  0.000E+00  0.000E+00  0.000E+00  1.03464E+03  1.005E+00  1.200E+01  6.000E-02  1.335E+00
   1   12    7     6     4    1.7956E+01  2.3983E-01   1.7716E+01  0.000E+00  0.000E+00  0.000E+00  1.03009E+03  9.971E-01  1.200E+01  6.000E-02  1.332E+00
   1   13    7     6     5    1.7716E+01  7.4320E-04   1.7715E+01  0.000E+00  0.000E+00  0.000E+00  1.02690E+03  9.931E-01  1.200E+01  2.400E-02  1.032E-02
   1   14    9     7     1    1.5000E+02  1.3683E+00   1.4863E+02  0.000E+00  0.000E+00  0.000E+00  1.03987E+03  2.288E+00  5.529E+01  5.593E-01  8.155E-01
   1   13    8     7     2    1.4863E+02  1.9104E+00   1.4672E+02  0.000E+00  0.000E+00  0.000E+00  1.03478E+03  2.279E+00  5.526E+01  6.148E-01  1.036E+00
   1   13    7     7     3    1.4672E+02  1.5735E+00   1.4515E+02  0.000E+00  0.000E+00  0.000E+00  1.02969E+03  2.270E+00  5.521E+01  5.584E-01  9.393E-01
   1   13    6     8     1    1.6286E+02  9.8058E-01   1.6188E+02  0.000E+00  0.000E+00  0.000E+00  1.02478E+03  2.902E+00  4.208E+01  4.288E-01  7.623E-01
   1   13    5     8     2    1.6188E+02  2.3494E-01   1.6165E+02  0.000E+00  0.000E+00  0.000E+00  1.01852E+03  2.898E+00  4.202E+01  4.282E-01  1.829E-01
   1   13    4     8     3    1.6165E+02 -2.2270E+00   1.6387E+02  0.000E+00  0.000E+00  0.000E+00  1.01228E+03  2.904E+00  4.211E+01  4.292E+00 -1.730E-01
   1   13    3     8     4    1.6387E+02 -3.5553E+00   1.6743E+02  0.000E+00  0.000E+00  0.000E+00  1.00605E+03  2.924E+00  4.239E+01  4.320E+00 -2.743E-01
   1   13    2     8     5    1.6743E+02 -2.5618E+00   1.6999E+02  0.000E+00  0.000E+00  0.000E+00  9.99819E+02  2.944E+00  4.268E+01  4.350E+00 -1.963E-01
   1   13    1     8     6    1.6999E+02 -1.9865E+00   1.7198E+02  0.000E+00  0.000E+00  0.000E+00  9.94834E+02  2.959E+00  4.290E+01  2.623E+00 -2.524E-01
   1    8    6     9     1    0.0000E+00  0.0000E+00   0.0000E+00  0.000E+00  0.000E+00  0.000E+00  1.07875E+03  0.000E+00  4.000E+00  0.000E+00  1.000E+00
   1    8    5     9     2    0.0000E+00  0.0000E+00   0.0000E+00  0.000E+00  0.000E+00  0.000E+00  1.07825E+03  0.000E+00  4.000E+00  0.000E+00  1.000E+00





UNSATURATED ZONE PACKAGE VOLUMETRIC BUDGET FOR  TIME STEP    30 STRESS PERIOD   11
  ------------------------------------------------------------------------------



     CUMULATIVE VOLUMES      L**3       RATES FOR THIS TIME STEP      L**3/T
     ------------------                 ------------------------

           IN:                                      IN:
           ---                                      ---
        INFILTRATION =   426252106.1166          INFILTRATION =           0.8475

          OUT:                                     OUT:
          ----                                     ----
              UZF ET =   426094522.7527                UZF ET =           0.8475
        UZF RECHARGE =       73224.0000          UZF RECHARGE =       0.0000E+00

            IN - OUT =       84359.3638              IN - OUT =       0.0000E+00

          STORAGE:                                 STORAGE:
          --------                                 --------
      STORAGE CHANGE =       84359.1881        STORAGE CHANGE =       1.3487E-16

 PERCENT DISCREPANCY IS DIFFERENCE BETWEEN IN-OUT MINUS CHANGE IN STORAGE
 DIVIDED BY THE AVERAGE OF IN AND OUT TIMES 100

 PERCENT DISCREPANCY =           0.00     PERCENT DISCREPANCY =           0.00






1
  VOLUMETRIC BUDGET FOR AGRICULTURAL FIELDS AT  END OF TIME STEP   30, STRESS PERIOD  11
  ------------------------------------------------------------------------------

     CUMULATIVE VOLUMES      L**3       RATES FOR THIS TIME STEP      L**3/T
     ------------------                 ------------------------

           IN:                                      IN:
           ---                                      ---
               AG WELLS  =   403889344.0000                 AG WELLS  =           0.0000
      DIVERSION SEGMENTS =           0.0000        DIVERSION SEGMENTS =           0.0000
       IRRIGATION PONDS  =           0.0000         IRRIGATION PONDS  =           0.0000
           GW IRRIGATION =           0.0000             GW IRRIGATION =           0.0000
           SW IRRIGATION =           0.0000             SW IRRIGATION =           0.0000
        SYSTEM LOSSES GW =           0.0000          SYSTEM LOSSES GW =           0.0000
        SYSTEM LOSSES SW =           0.0000          SYSTEM LOSSES SW =           0.0000

                TOTAL IN =   403889344.0000                  TOTAL IN =           0.0000

          OUT:                                     OUT:
          ----                                     ----
               AG WELLS  =           0.0000                 AG WELLS  =           0.0000
      DIVERSION SEGMENTS =           0.0000        DIVERSION SEGMENTS =           0.0000
       IRRIGATION PONDS  =           0.0000         IRRIGATION PONDS  =           0.0000
           GW IRRIGATION =   403889344.0000             GW IRRIGATION =           0.0000
           SW IRRIGATION =           0.0000             SW IRRIGATION =           0.0000
        SYSTEM LOSSES GW =           0.0000          SYSTEM LOSSES GW =           0.0000
        SYSTEM LOSSES SW =           0.0000          SYSTEM LOSSES SW =           0.0000

               TOTAL OUT =   403889344.0000                 TOTAL OUT =           0.0000

                IN - OUT =           0.0000                  IN - OUT =           0.0000

     PERCENT DISCREPANCY =           0.00         PERCENT DISCREPANCY =           0.00



1
  VOLUMETRIC BUDGET FOR ENTIRE MODEL AT END OF TIME STEP   30, STRESS PERIOD  11
  ------------------------------------------------------------------------------

     CUMULATIVE VOLUMES      L**3       RATES FOR THIS TIME STEP      L**3/T
     ------------------                 ------------------------

           IN:                                      IN:
           ---                                      ---
             STORAGE     =   470336480.0000               STORAGE     =          12.4608
       CONSTANT HEAD     =           0.0000         CONSTANT HEAD     =           0.0000
     HEAD DEP BOUNDS     =     7596815.0000       HEAD DEP BOUNDS     =           0.2880
      STREAM LEAKAGE     =   313989216.0000        STREAM LEAKAGE     =          11.4773
        UZF RECHARGE     =       73223.9531          UZF RECHARGE     =           0.0000
               GW ET     =           0.0000                 GW ET     =           0.0000
     SURFACE LEAKAGE     =           0.0000       SURFACE LEAKAGE     =           0.0000
           AG WELLS      =           0.0000             AG WELLS      =           0.0000

                TOTAL IN =   791995712.0000                  TOTAL IN =          24.2260

          OUT:                                     OUT:
          ----                                     ----
             STORAGE     =   110048024.0000               STORAGE     =          13.6071
       CONSTANT HEAD     =           0.0000         CONSTANT HEAD     =           0.0000
     HEAD DEP BOUNDS     =     7637207.0000       HEAD DEP BOUNDS     =           0.2885
      STREAM LEAKAGE     =   270423392.0000        STREAM LEAKAGE     =          10.3305
        UZF RECHARGE     =           0.0000          UZF RECHARGE     =           0.0000
               GW ET     =           0.0000                 GW ET     =           0.0000
     SURFACE LEAKAGE     =           0.0000       SURFACE LEAKAGE     =           0.0000
           AG WELLS      =   403889344.0000             AG WELLS      =           0.0000

               TOTAL OUT =   791997952.0000                 TOTAL OUT =          24.2260

                IN - OUT =       -2240.0000                  IN - OUT =       7.6294E-06

     PERCENT DISCREPANCY =          -0.00         PERCENT DISCREPANCY =           0.00






         TIME SUMMARY AT END OF TIME STEP   30 IN STRESS PERIOD   11
                    SECONDS     MINUTES      HOURS       DAYS        YEARS
                    -----------------------------------------------------------
   TIME STEP LENGTH  87667.      1461.1      24.352      1.0147     2.77799E-03
 STRESS PERIOD TIME 2.63000E+06  43833.      730.56      30.440     8.33397E-02
         TOTAL TIME 2.63864E+07 4.39773E+05  7329.5      305.40     0.83613    
1
1
                            STRESS PERIOD NO.   12, LENGTH =   2630000.    
                            -----------------------------------------------

                              NUMBER OF TIME STEPS =    30

                               MULTIPLIER FOR DELT =     1.000

                            INITIAL TIME STEP SIZE =   87666.66    

 REUSING NON-PARAMETER GHB CELLS FROM LAST STRESS PERIOD

      2 GHB CELLS

 REUSING STREAM SEGMENT DATA FROM LAST STRESS PERIOD



            AREAL INFILTRATION RATE
 READING ON UNIT   19 WITH FORMAT: (FREE)              

            1           2           3           4           5           6           7           8           9          10
 ........................................................................................................................
   1   1.0000E-10  2.0000E-10   0.000       0.000       0.000       0.000       0.000       0.000       0.000       0.000    
   2   2.0000E-10  1.0000E-10  2.0000E-10   0.000       0.000      8.0000E-10  8.0000E-10  5.0000E-10   0.000       0.000    
   3    0.000      5.0000E-10  1.0000E-10  1.0000E-10  8.0000E-10  8.0000E-10  5.0000E-10  5.0000E-10   0.000       0.000    
   4   8.0000E-10  5.0000E-10  1.0000E-10  1.0000E-10  1.0000E-10  1.0000E-10  1.0000E-10  1.0000E-10  2.0000E-10   0.000    
   5   8.0000E-10  5.0000E-10  1.0000E-10  1.0000E-10  1.0000E-10  1.0000E-10  1.0000E-10  1.0000E-10  1.0000E-10  1.0000E-10
   6   8.0000E-10  5.0000E-10  5.0000E-10  2.0000E-10  2.0000E-10  1.0000E-10  1.0000E-10  1.0000E-10  1.0000E-10  5.0000E-10
   7   8.0000E-10  5.0000E-10  5.0000E-10  2.0000E-10  2.0000E-10  1.0000E-10  1.0000E-10  2.0000E-10  2.0000E-10   0.000    
   8    0.000      5.0000E-10  5.0000E-10  2.0000E-10  2.0000E-10  1.0000E-10  1.0000E-10  2.0000E-10  5.0000E-10   0.000    
   9    0.000      5.0000E-10  5.0000E-10  2.0000E-10  2.0000E-10  1.0000E-10  1.0000E-10  2.0000E-10  5.0000E-10   0.000    
  10    0.000      5.0000E-10  5.0000E-10  2.0000E-10  2.0000E-10  1.0000E-10  1.0000E-10  2.0000E-10  5.0000E-10  8.0000E-10
  11    0.000      1.0000E-10  1.0000E-10  1.0000E-10  1.0000E-10  1.0000E-10  1.0000E-10  2.0000E-10  5.0000E-10   0.000    
  12   1.0000E-10  1.0000E-10  1.0000E-10  1.0000E-10  1.0000E-10  1.0000E-10  1.0000E-10  1.0000E-10  2.0000E-10   0.000    
  13   1.0000E-10  1.0000E-10  2.0000E-10  2.0000E-10  2.0000E-10  2.0000E-10  2.0000E-10  1.0000E-10  1.0000E-10   0.000    
  14    0.000      2.0000E-10  5.0000E-10  5.0000E-10  5.0000E-10  5.0000E-10  5.0000E-10  2.0000E-10  1.0000E-10   0.000    
  15    0.000       0.000      8.0000E-10  8.0000E-10  8.0000E-10  8.0000E-10   0.000       0.000       0.000       0.000    

                  ET RATE =  5.000000E-10

 USING ET EXTINCTION DEPTH FROM PREVIOUS STRESS PERIOD. CURRENT PERIOD IS:      12

 USING EXTINCTION WATER CONTENT FROM PREVIOUS STRESS PERIOD. CURRENT PERIOD IS:      12

 USING AIR ENTRY PRESSURE FROM PREVIOUS STRESS PERIOD. CURRENT PERIOD IS:      12

 USING ROOT PRESSURE HEAD FROM PREVIOUS STRESS PERIOD. CURRENT PERIOD IS:      12

 USING ROOT ACTIVITY FROM PREVIOUS STRESS PERIOD. CURRENT PERIOD IS:      12

 PROCESSING AG STRESS PERIOD DATA

 READING AG STRESS PERIOD DATA

 READING IRRIGATION SEGMENT

 READING IRRIGATION WELL

 READING SUPPLEMENTAL WELL

 NO IRRPOND OR REUSING IRRPOND DATA FROM LAST STRESS PERIOD

 END PROCESSING AG STRESS PERIOD DATA OPTIONS
 
 SOLVING FOR HEAD 
                                                   Max.-Head-Change                         Max.-Flux-Residual
  Residual-Control   Outer-Iter.   Inner-Iter.     Column Row Layer    Maximum-Head-Change  Column Row Layer    Maximum-Flux-Residual          L2-NORM 
          0                 1           2             4    7     1       0.4888845278E-01       4    7    1         0.2576930052E+01      0.5266352499E+01
          0                 2           2             4    7     1      -0.4755561719E-02       4    7    1        -0.2576962964E+00      0.5267331379E+00
          0                 3           2             4    7     1       0.3238356501E-03       4    7    1         0.1803871741E-01      0.3687764821E-01
          0                 4           1             4    7     1      -0.1288572563E-04       4    7    1        -0.7377847162E-03      0.1509369660E-02

    ------------------------------------------------
       NWT REQUIRED            4 OUTER ITERATIONS 
       AND A TOTAL OF          7 INNER ITERATIONS.
    ------------------------------------------------

 NO OUTPUT CONTROL FOR STRESS PERIOD   12   TIME STEP    1
 
 SOLVING FOR HEAD 
                                                   Max.-Head-Change                         Max.-Flux-Residual
  Residual-Control   Outer-Iter.   Inner-Iter.     Column Row Layer    Maximum-Head-Change  Column Row Layer    Maximum-Flux-Residual          L2-NORM 
          0                 1           2             4    7     1       0.4819024059E-01       4    7    1         0.2540131864E+01      0.5193688951E+01
          0                 2           2             4    7     1      -0.4687643618E-02       4    7    1        -0.2540164030E+00      0.5193559728E+00
          0                 3           2             4    7     1       0.3192106898E-03       4    7    1         0.1778112545E-01      0.3635357793E-01
          0                 4           1             4    7     1      -0.1270169416E-04       4    7    1        -0.7272491839E-03      0.1486769388E-02

    ------------------------------------------------
       NWT REQUIRED            4 OUTER ITERATIONS 
       AND A TOTAL OF          7 INNER ITERATIONS.
    ------------------------------------------------

 NO OUTPUT CONTROL FOR STRESS PERIOD   12   TIME STEP    2
 
 SOLVING FOR HEAD 
                                                   Max.-Head-Change                         Max.-Flux-Residual
  Residual-Control   Outer-Iter.   Inner-Iter.     Column Row Layer    Maximum-Head-Change  Column Row Layer    Maximum-Flux-Residual          L2-NORM 
          0                 1           2             4    7     1       0.4750215496E-01       4    7    1         0.2503857822E+01      0.5120997521E+01
          0                 2           2             4    7     1      -0.4620710564E-02       4    7    1        -0.2503889246E+00      0.5120882647E+00
          0                 3           2             4    7     1       0.3146528077E-03       4    7    1         0.1752720256E-01      0.3584498074E-01
          0                 4           1             4    7     1      -0.1252033181E-04       4    7    1        -0.7168637310E-03      0.1465965625E-02

    ------------------------------------------------
       NWT REQUIRED            4 OUTER ITERATIONS 
       AND A TOTAL OF          7 INNER ITERATIONS.
    ------------------------------------------------

 NO OUTPUT CONTROL FOR STRESS PERIOD   12   TIME STEP    3
 
 SOLVING FOR HEAD 
                                                   Max.-Head-Change                         Max.-Flux-Residual
  Residual-Control   Outer-Iter.   Inner-Iter.     Column Row Layer    Maximum-Head-Change  Column Row Layer    Maximum-Flux-Residual          L2-NORM 
          0                 1           2             4    7     1       0.4682419902E-01       4    7    1         0.2468108811E+01      0.5049968316E+01
          0                 2           2             4    7     1      -0.4554762863E-02       4    7    1        -0.2468139502E+00      0.5049866009E+00
          0                 3           2             4    7     1       0.3101620239E-03       4    7    1         0.1727695493E-01      0.3534801190E-01
          0                 4           1             4    7     1      -0.1234163916E-04       4    7    1        -0.7066285687E-03      0.1445671298E-02

    ------------------------------------------------
       NWT REQUIRED            4 OUTER ITERATIONS 
       AND A TOTAL OF          7 INNER ITERATIONS.
    ------------------------------------------------

 NO OUTPUT CONTROL FOR STRESS PERIOD   12   TIME STEP    4
 
 SOLVING FOR HEAD 
                                                   Max.-Head-Change                         Max.-Flux-Residual
  Residual-Control   Outer-Iter.   Inner-Iter.     Column Row Layer    Maximum-Head-Change  Column Row Layer    Maximum-Flux-Residual          L2-NORM 
          0                 1           2             4    7     1       0.4615621871E-01       4    7    1         0.2432877709E+01      0.4980528919E+01
          0                 2           2             4    7     1      -0.4489785532E-02       4    7    1        -0.2432907675E+00      0.4980437413E+00
          0                 3           2             4    7     1       0.3057373192E-03       4    7    1         0.1703033273E-01      0.3486206574E-01
          0                 4           1             4    7     1      -0.1216557601E-04       4    7    1        -0.6965417094E-03      0.1425790533E-02

    ------------------------------------------------
       NWT REQUIRED            4 OUTER ITERATIONS 
       AND A TOTAL OF          7 INNER ITERATIONS.
    ------------------------------------------------

 NO OUTPUT CONTROL FOR STRESS PERIOD   12   TIME STEP    5
 
 SOLVING FOR HEAD 
                                                   Max.-Head-Change                         Max.-Flux-Residual
  Residual-Control   Outer-Iter.   Inner-Iter.     Column Row Layer    Maximum-Head-Change  Column Row Layer    Maximum-Flux-Residual          L2-NORM 
          0                 1           2             4    7     1       0.4549832906E-01       4    7    1         0.2398171099E+01      0.4912635283E+01
          0                 2           2             4    7     1      -0.4425789759E-02       4    7    1        -0.2398200348E+00      0.4912553284E+00
          0                 3           2             4    7     1       0.3013794548E-03       4    7    1         0.1678738202E-01      0.3438700530E-01
          0                 4           1             4    7     1      -0.1199217266E-04       4    7    1        -0.6866050157E-03      0.1406383436E-02

    ------------------------------------------------
       NWT REQUIRED            4 OUTER ITERATIONS 
       AND A TOTAL OF          7 INNER ITERATIONS.
    ------------------------------------------------

 NO OUTPUT CONTROL FOR STRESS PERIOD   12   TIME STEP    6
 
 SOLVING FOR HEAD 
                                                   Max.-Head-Change                         Max.-Flux-Residual
  Residual-Control   Outer-Iter.   Inner-Iter.     Column Row Layer    Maximum-Head-Change  Column Row Layer    Maximum-Flux-Residual          L2-NORM 
          0                 1           2             4    7     1       0.4485062056E-01       4    7    1         0.2363994946E+01      0.4846239082E+01
          0                 2           2             4    7     1      -0.4362784351E-02       4    7    1        -0.2364023490E+00      0.4846165595E+00
          0                 3           2             4    7     1       0.2970890302E-03       4    7    1         0.1654814459E-01      0.3392236124E-01
          0                 4           1             4    7     1      -0.1182145248E-04       4    7    1        -0.6768201877E-03      0.1387347111E-02

    ------------------------------------------------
       NWT REQUIRED            4 OUTER ITERATIONS 
       AND A TOTAL OF          7 INNER ITERATIONS.
    ------------------------------------------------

 NO OUTPUT CONTROL FOR STRESS PERIOD   12   TIME STEP    7
 
 SOLVING FOR HEAD 
                                                   Max.-Head-Change                         Max.-Flux-Residual
  Residual-Control   Outer-Iter.   Inner-Iter.     Column Row Layer    Maximum-Head-Change  Column Row Layer    Maximum-Flux-Residual          L2-NORM 
          0                 1           2             4    7     1       0.4421290073E-01       4    7    1         0.2330339371E+01      0.4781286602E+01
          0                 2           2             4    7     1      -0.4300750582E-02       4    7    1        -0.2330367221E+00      0.4781220350E+00
          0                 3           2             4    7     1       0.2928647700E-03       4    7    1         0.1631255124E-01      0.3346781448E-01
          0                 4           1             4    7     1      -0.1165336514E-04       4    7    1        -0.6671843885E-03      0.1368799001E-02

    ------------------------------------------------
       NWT REQUIRED            4 OUTER ITERATIONS 
       AND A TOTAL OF          7 INNER ITERATIONS.
    ------------------------------------------------

 NO OUTPUT CONTROL FOR STRESS PERIOD   12   TIME STEP    8
 
 SOLVING FOR HEAD 
                                                   Max.-Head-Change                         Max.-Flux-Residual
  Residual-Control   Outer-Iter.   Inner-Iter.     Column Row Layer    Maximum-Head-Change  Column Row Layer    Maximum-Flux-Residual          L2-NORM 
          0                 1           2             4    7     1       0.4358523699E-01       4    7    1         0.2297208969E+01      0.4717719076E+01
          0                 2           2             4    7     1      -0.4239695014E-02       4    7    1        -0.2297236135E+00      0.4717659325E+00
          0                 3           2             4    7     1       0.2887071222E-03       4    7    1         0.1608063419E-01      0.3302296772E-01
          0                 4           1             4    7     1      -0.1148792839E-04       4    7    1        -0.6576989774E-03      0.1350606537E-02

    ------------------------------------------------
       NWT REQUIRED            4 OUTER ITERATIONS 
       AND A TOTAL OF          7 INNER ITERATIONS.
    ------------------------------------------------

 NO OUTPUT CONTROL FOR STRESS PERIOD   12   TIME STEP    9
 
 SOLVING FOR HEAD 
                                                   Max.-Head-Change                         Max.-Flux-Residual
  Residual-Control   Outer-Iter.   Inner-Iter.     Column Row Layer    Maximum-Head-Change  Column Row Layer    Maximum-Flux-Residual          L2-NORM 
          0                 1           2             4    7     1       0.4296741995E-01       4    7    1         0.2264592658E+01      0.4655509026E+01
          0                 2           2             4    7     1      -0.4179597278E-02       4    7    1        -0.2264619152E+00      0.4655454797E+00
          0                 3           2             4    7     1       0.2846146987E-03       4    7    1         0.1585231584E-01      0.3258756994E-01
          0                 4           1             4    7     1      -0.1132508697E-04       4    7    1        -0.6483607335E-03      0.1332799105E-02

    ------------------------------------------------
       NWT REQUIRED            4 OUTER ITERATIONS 
       AND A TOTAL OF          7 INNER ITERATIONS.
    ------------------------------------------------

 NO OUTPUT CONTROL FOR STRESS PERIOD   12   TIME STEP   10
 
 SOLVING FOR HEAD 
                                                   Max.-Head-Change                         Max.-Flux-Residual
  Residual-Control   Outer-Iter.   Inner-Iter.     Column Row Layer    Maximum-Head-Change  Column Row Layer    Maximum-Flux-Residual          L2-NORM 
          0                 1           2             4    7     1       0.4235950297E-01       4    7    1         0.2232494161E+01      0.4594607647E+01
          0                 2           2             4    7     1      -0.4120461642E-02       4    7    1        -0.2232519995E+00      0.4594113279E+00
          0                 3           2             4    7     1       0.2805877904E-03       4    7    1         0.1562762226E-01      0.3215821394E-01
          0                 4           1             4    7     1      -0.1116485237E-04       4    7    1        -0.6391707554E-03      0.1315213758E-02

    ------------------------------------------------
       NWT REQUIRED            4 OUTER ITERATIONS 
       AND A TOTAL OF          7 INNER ITERATIONS.
    ------------------------------------------------

 NO OUTPUT CONTROL FOR STRESS PERIOD   12   TIME STEP   11
 
 SOLVING FOR HEAD 
                                                   Max.-Head-Change                         Max.-Flux-Residual
  Residual-Control   Outer-Iter.   Inner-Iter.     Column Row Layer    Maximum-Head-Change  Column Row Layer    Maximum-Flux-Residual          L2-NORM 
          0                 1           2             4    7     1       0.4176139252E-01       4    7    1         0.2200909005E+01      0.4535007243E+01
          0                 2           2             4    7     1      -0.4062281781E-02       4    7    1        -0.2200934192E+00      0.4534963299E+00
          0                 3           2             4    7     1       0.2766259671E-03       4    7    1         0.1540652216E-01      0.3174421371E-01
          0                 4           1             4    7     1      -0.1100720780E-04       4    7    1        -0.6301277576E-03      0.1298322843E-02

    ------------------------------------------------
       NWT REQUIRED            4 OUTER ITERATIONS 
       AND A TOTAL OF          7 INNER ITERATIONS.
    ------------------------------------------------

 NO OUTPUT CONTROL FOR STRESS PERIOD   12   TIME STEP   12
 
 SOLVING FOR HEAD 
                                                   Max.-Head-Change                         Max.-Flux-Residual
  Residual-Control   Outer-Iter.   Inner-Iter.     Column Row Layer    Maximum-Head-Change  Column Row Layer    Maximum-Flux-Residual          L2-NORM 
          0                 1           2             4    7     1       0.4117298765E-01       4    7    1         0.2169832193E+01      0.4476657850E+01
          0                 2           2             4    7     1      -0.4005045102E-02       4    7    1        -0.2169856746E+00      0.4476617557E+00
          0                 3           2             4    7     1       0.2727283704E-03       4    7    1         0.1518898054E-01      0.3133585019E-01
          0                 4           1             4    7     1      -0.1085211872E-04       4    7    1        -0.6212302774E-03      0.1281606687E-02

    ------------------------------------------------
       NWT REQUIRED            4 OUTER ITERATIONS 
       AND A TOTAL OF          7 INNER ITERATIONS.
    ------------------------------------------------

 NO OUTPUT CONTROL FOR STRESS PERIOD   12   TIME STEP   13
 
 SOLVING FOR HEAD 
                                                   Max.-Head-Change                         Max.-Flux-Residual
  Residual-Control   Outer-Iter.   Inner-Iter.     Column Row Layer    Maximum-Head-Change  Column Row Layer    Maximum-Flux-Residual          L2-NORM 
          0                 1           2             4    7     1       0.4059418325E-01       4    7    1         0.2139258640E+01      0.4419499720E+01
          0                 2           2             4    7     1      -0.3948742305E-02       4    7    1        -0.2139282571E+00      0.4419463208E+00
          0                 3           2             4    7     1       0.2688943676E-03       4    7    1         0.1497496182E-01      0.3093580016E-01
          0                 4           1             4    7     1      -0.1069955992E-04       4    7    1        -0.6124768963E-03      0.1265228088E-02

    ------------------------------------------------
       NWT REQUIRED            4 OUTER ITERATIONS 
       AND A TOTAL OF          7 INNER ITERATIONS.
    ------------------------------------------------

 NO OUTPUT CONTROL FOR STRESS PERIOD   12   TIME STEP   14
 
 SOLVING FOR HEAD 
                                                   Max.-Head-Change                         Max.-Flux-Residual
  Residual-Control   Outer-Iter.   Inner-Iter.     Column Row Layer    Maximum-Head-Change  Column Row Layer    Maximum-Flux-Residual          L2-NORM 
          0                 1           2             4    7     1       0.4002500177E-01       4    7    1         0.2109190138E+01      0.4363500443E+01
          0                 2           2             4    7     1      -0.3893375576E-02       4    7    1        -0.2109213461E+00      0.4363467032E+00
          0                 3           2             4    7     1       0.2651241071E-03       4    7    1         0.1476447853E-01      0.3054384242E-01
          0                 4           1             4    7     1      -0.1054953795E-04       4    7    1        -0.6038681104E-03      0.1249204043E-02

    ------------------------------------------------
       NWT REQUIRED            4 OUTER ITERATIONS 
       AND A TOTAL OF          7 INNER ITERATIONS.
    ------------------------------------------------

 NO OUTPUT CONTROL FOR STRESS PERIOD   12   TIME STEP   15
 
 SOLVING FOR HEAD 
                                                   Max.-Head-Change                         Max.-Flux-Residual
  Residual-Control   Outer-Iter.   Inner-Iter.     Column Row Layer    Maximum-Head-Change  Column Row Layer    Maximum-Flux-Residual          L2-NORM 
          0                 1           2             4    7     1       0.3946518689E-01       4    7    1         0.2079613268E+01      0.4308622744E+01
          0                 2           2             4    7     1      -0.3838919980E-02       4    7    1        -0.2079635996E+00      0.4308592192E+00
          0                 3           2             4    7     1       0.2614158918E-03       4    7    1         0.1455743675E-01      0.3015975661E-01
          0                 4           1             4    7     1      -0.1040198477E-04       4    7    1        -0.5954001017E-03      0.1233490265E-02

    ------------------------------------------------
       NWT REQUIRED            4 OUTER ITERATIONS 
       AND A TOTAL OF          7 INNER ITERATIONS.
    ------------------------------------------------

 NO OUTPUT CONTROL FOR STRESS PERIOD   12   TIME STEP   16
 
 SOLVING FOR HEAD 
                                                   Max.-Head-Change                         Max.-Flux-Residual
  Residual-Control   Outer-Iter.   Inner-Iter.     Column Row Layer    Maximum-Head-Change  Column Row Layer    Maximum-Flux-Residual          L2-NORM 
          0                 1           2             4    7     1       0.3891475220E-01       4    7    1         0.2050529326E+01      0.4254835801E+01
          0                 2           2             4    7     1      -0.3785376839E-02       4    7    1        -0.2050551472E+00      0.4254807509E+00
          0                 3           2             4    7     1       0.2577698106E-03       4    7    1         0.1435384555E-01      0.2978328757E-01
          0                 4           1             4    7     1      -0.1025690362E-04       4    7    1        -0.5870731993E-03      0.1218112827E-02

    ------------------------------------------------
       NWT REQUIRED            4 OUTER ITERATIONS 
       AND A TOTAL OF          7 INNER ITERATIONS.
    ------------------------------------------------

 NO OUTPUT CONTROL FOR STRESS PERIOD   12   TIME STEP   17
 
 SOLVING FOR HEAD 
                                                   Max.-Head-Change                         Max.-Flux-Residual
  Residual-Control   Outer-Iter.   Inner-Iter.     Column Row Layer    Maximum-Head-Change  Column Row Layer    Maximum-Flux-Residual          L2-NORM 
          0                 1           2             4    7     1       0.3837343694E-01       4    7    1         0.2021924430E+01      0.4202108917E+01
          0                 2           2             4    7     1      -0.3732720791E-02       4    7    1        -0.2021946006E+00      0.4202082774E+00
          0                 3           2             4    7     1       0.2541841370E-03       4    7    1         0.1415360774E-01      0.2941423355E-01
          0                 4           1             4    7     1      -0.1011422575E-04       4    7    1        -0.5788834421E-03      0.1203014371E-02

    ------------------------------------------------
       NWT REQUIRED            4 OUTER ITERATIONS 
       AND A TOTAL OF          7 INNER ITERATIONS.
    ------------------------------------------------

 NO OUTPUT CONTROL FOR STRESS PERIOD   12   TIME STEP   18
 
 SOLVING FOR HEAD 
                                                   Max.-Head-Change                         Max.-Flux-Residual
  Residual-Control   Outer-Iter.   Inner-Iter.     Column Row Layer    Maximum-Head-Change  Column Row Layer    Maximum-Flux-Residual          L2-NORM 
          0                 1           2             4    7     1       0.3784138138E-01       4    7    1         0.1993806943E+01      0.4150417427E+01
          0                 2           2             4    7     1      -0.3680965478E-02       4    7    1        -0.1993827964E+00      0.4150392976E+00
          0                 3           2             4    7     1       0.2506598004E-03       4    7    1         0.1395678190E-01      0.2905243519E-01
          0                 4           1             4    7     1      -0.9973989167E-05       4    7    1        -0.5708332617E-03      0.1188237403E-02

    ------------------------------------------------
       NWT REQUIRED            4 OUTER ITERATIONS 
       AND A TOTAL OF          7 INNER ITERATIONS.
    ------------------------------------------------

 NO OUTPUT CONTROL FOR STRESS PERIOD   12   TIME STEP   19
 
 SOLVING FOR HEAD 
                                                   Max.-Head-Change                         Max.-Flux-Residual
  Residual-Control   Outer-Iter.   Inner-Iter.     Column Row Layer    Maximum-Head-Change  Column Row Layer    Maximum-Flux-Residual          L2-NORM 
          0                 1           2             4    7     1       0.3731817843E-01       4    7    1         0.1966154960E+01      0.4099724487E+01
          0                 2           2             4    7     1      -0.3630071298E-02       4    7    1        -0.1966175437E+00      0.4099663956E+00
          0                 3           2             4    7     1       0.2471941031E-03       4    7    1         0.1376321463E-01      0.2869734380E-01
          0                 4           1             4    7     1      -0.9836086104E-05       4    7    1        -0.5629163600E-03      0.1173719013E-02

    ------------------------------------------------
       NWT REQUIRED            4 OUTER ITERATIONS 
       AND A TOTAL OF          7 INNER ITERATIONS.
    ------------------------------------------------

 NO OUTPUT CONTROL FOR STRESS PERIOD   12   TIME STEP   20
 
 SOLVING FOR HEAD 
                                                   Max.-Head-Change                         Max.-Flux-Residual
  Residual-Control   Outer-Iter.   Inner-Iter.     Column Row Layer    Maximum-Head-Change  Column Row Layer    Maximum-Flux-Residual          L2-NORM 
          0                 1           2             4    7     1       0.3680396621E-01       4    7    1         0.1938976554E+01      0.4050014073E+01
          0                 2           2             4    7     1      -0.3580051695E-02       4    7    1        -0.1938996501E+00      0.4049992952E+00
          0                 3           2             4    7     1       0.2437879615E-03       4    7    1         0.1357296251E-01      0.2834965601E-01
          0                 4           1             4    7     1      -0.9700552482E-05       4    7    1        -0.5551350357E-03      0.1159476799E-02

    ------------------------------------------------
       NWT REQUIRED            4 OUTER ITERATIONS 
       AND A TOTAL OF          7 INNER ITERATIONS.
    ------------------------------------------------

 NO OUTPUT CONTROL FOR STRESS PERIOD   12   TIME STEP   21
 
 SOLVING FOR HEAD 
                                                   Max.-Head-Change                         Max.-Flux-Residual
  Residual-Control   Outer-Iter.   Inner-Iter.     Column Row Layer    Maximum-Head-Change  Column Row Layer    Maximum-Flux-Residual          L2-NORM 
          0                 1           2             4    7     1       0.3629846163E-01       4    7    1         0.1912257000E+01      0.4001262185E+01
          0                 2           2             4    7     1      -0.3530879125E-02       4    7    1        -0.1912276430E+00      0.4001242378E+00
          0                 3           2             4    7     1       0.2404394987E-03       4    7    1         0.1338592240E-01      0.2800842194E-01
          0                 4           1             4    7     1      -0.9567314044E-05       4    7    1        -0.5474850777E-03      0.1145524564E-02

    ------------------------------------------------
       NWT REQUIRED            4 OUTER ITERATIONS 
       AND A TOTAL OF          7 INNER ITERATIONS.
    ------------------------------------------------

 NO OUTPUT CONTROL FOR STRESS PERIOD   12   TIME STEP   22
 
 SOLVING FOR HEAD 
                                                   Max.-Head-Change                         Max.-Flux-Residual
  Residual-Control   Outer-Iter.   Inner-Iter.     Column Row Layer    Maximum-Head-Change  Column Row Layer    Maximum-Flux-Residual          L2-NORM 
          0                 1           2             4    7     1       0.3580166557E-01       4    7    1         0.1885996215E+01      0.3953443054E+01
          0                 2           2             4    7     1      -0.3482553676E-02       4    7    1        -0.1886015141E+00      0.3953425236E+00
          0                 3           2             4    7     1       0.2371487225E-03       4    7    1         0.1320209379E-01      0.2767368102E-01
          0                 4           1             4    7     1      -0.9436371365E-05       4    7    1        -0.5399664924E-03      0.1132043145E-02

    ------------------------------------------------
       NWT REQUIRED            4 OUTER ITERATIONS 
       AND A TOTAL OF          7 INNER ITERATIONS.
    ------------------------------------------------

 NO OUTPUT CONTROL FOR STRESS PERIOD   12   TIME STEP   23
 
 SOLVING FOR HEAD 
                                                   Max.-Head-Change                         Max.-Flux-Residual
  Residual-Control   Outer-Iter.   Inner-Iter.     Column Row Layer    Maximum-Head-Change  Column Row Layer    Maximum-Flux-Residual          L2-NORM 
          0                 1           2             4    7     1       0.3531329560E-01       4    7    1         0.1860179648E+01      0.3906517780E+01
          0                 2           2             4    7     1      -0.3435047873E-02       4    7    1        -0.1860198083E+00      0.3906500248E+00
          0                 3           2             4    7     1       0.2339137602E-03       4    7    1         0.1302137476E-01      0.2734524699E-01
          0                 4           1             4    7     1      -0.9307648922E-05       4    7    1        -0.5325750603E-03      0.1118409078E-02

    ------------------------------------------------
       NWT REQUIRED            4 OUTER ITERATIONS 
       AND A TOTAL OF          7 INNER ITERATIONS.
    ------------------------------------------------

 NO OUTPUT CONTROL FOR STRESS PERIOD   12   TIME STEP   24
 
 SOLVING FOR HEAD 
                                                   Max.-Head-Change                         Max.-Flux-Residual
  Residual-Control   Outer-Iter.   Inner-Iter.     Column Row Layer    Maximum-Head-Change  Column Row Layer    Maximum-Flux-Residual          L2-NORM 
          0                 1           2             4    7     1       0.3483334878E-01       4    7    1         0.1834807253E+01      0.3860471624E+01
          0                 2           2             4    7     1      -0.3388361430E-02       4    7    1        -0.1834825208E+00      0.3860454876E+00
          0                 3           2             4    7     1       0.2307345932E-03       4    7    1         0.1284376502E-01      0.2702294527E-01
          0                 4           1             4    7     1      -0.9181146715E-05       4    7    1        -0.5253107965E-03      0.1105237456E-02

    ------------------------------------------------
       NWT REQUIRED            4 OUTER ITERATIONS 
       AND A TOTAL OF          7 INNER ITERATIONS.
    ------------------------------------------------

 NO OUTPUT CONTROL FOR STRESS PERIOD   12   TIME STEP   25
 
 SOLVING FOR HEAD 
                                                   Max.-Head-Change                         Max.-Flux-Residual
  Residual-Control   Outer-Iter.   Inner-Iter.     Column Row Layer    Maximum-Head-Change  Column Row Layer    Maximum-Flux-Residual          L2-NORM 
          0                 1           2             4    7     1       0.3436167962E-01       4    7    1         0.1809871580E+01      0.3815273052E+01
          0                 2           2             4    7     1      -0.3342480195E-02       4    7    1        -0.1809889068E+00      0.3815222477E+00
          0                 3           2             4    7     1       0.2276102578E-03       4    7    1         0.1266921240E-01      0.2670632148E-01
          0                 4           1             4    7     1      -0.9056826060E-05       4    7    1        -0.5181715769E-03      0.1092268326E-02

    ------------------------------------------------
       NWT REQUIRED            4 OUTER ITERATIONS 
       AND A TOTAL OF          7 INNER ITERATIONS.
    ------------------------------------------------

 NO OUTPUT CONTROL FOR STRESS PERIOD   12   TIME STEP   26
 
 SOLVING FOR HEAD 
                                                   Max.-Head-Change                         Max.-Flux-Residual
  Residual-Control   Outer-Iter.   Inner-Iter.     Column Row Layer    Maximum-Head-Change  Column Row Layer    Maximum-Flux-Residual          L2-NORM 
          0                 1           2             4    7     1       0.3389813906E-01       4    7    1         0.1785365086E+01      0.3770907716E+01
          0                 2           2             4    7     1      -0.3297389672E-02       4    7    1        -0.1785382119E+00      0.3770892786E+00
          0                 3           2             4    7     1       0.2245397672E-03       4    7    1         0.1249766412E-01      0.2639601724E-01
          0                 4           1             4    7     1      -0.8934648736E-05       4    7    1        -0.5111552509E-03      0.1079589379E-02

    ------------------------------------------------
       NWT REQUIRED            4 OUTER ITERATIONS 
       AND A TOTAL OF          7 INNER ITERATIONS.
    ------------------------------------------------

 NO OUTPUT CONTROL FOR STRESS PERIOD   12   TIME STEP   27
 
 SOLVING FOR HEAD 
                                                   Max.-Head-Change                         Max.-Flux-Residual
  Residual-Control   Outer-Iter.   Inner-Iter.     Column Row Layer    Maximum-Head-Change  Column Row Layer    Maximum-Flux-Residual          L2-NORM 
          0                 1           2             4    7     1       0.3344258547E-01       4    7    1         0.1761280041E+01      0.3727368303E+01
          0                 2           2             4    7     1      -0.3253076079E-02       4    7    1        -0.1761296630E+00      0.3727353984E+00
          0                 3           2             4    7     1       0.2215221818E-03       4    7    1         0.1232906603E-01      0.2609127026E-01
          0                 4           1             4    7     1      -0.8814576060E-05       4    7    1        -0.5042595706E-03      0.1067123539E-02

    ------------------------------------------------
       NWT REQUIRED            4 OUTER ITERATIONS 
       AND A TOTAL OF          7 INNER ITERATIONS.
    ------------------------------------------------

 NO OUTPUT CONTROL FOR STRESS PERIOD   12   TIME STEP   28
 
 SOLVING FOR HEAD 
                                                   Max.-Head-Change                         Max.-Flux-Residual
  Residual-Control   Outer-Iter.   Inner-Iter.     Column Row Layer    Maximum-Head-Change  Column Row Layer    Maximum-Flux-Residual          L2-NORM 
          0                 1           2             4    7     1       0.3299486851E-01       4    7    1         0.1737609103E+01      0.3684607479E+01
          0                 2           2             4    7     1      -0.3209524793E-02       4    7    1        -0.1737625260E+00      0.3684593519E+00
          0                 3           2             4    7     1       0.2185565069E-03       4    7    1         0.1216336678E-01      0.2579193909E-01
          0                 4           1             4    7     1      -0.8696569118E-05       4    7    1        -0.4974824685E-03      0.1054884831E-02

    ------------------------------------------------
       NWT REQUIRED            4 OUTER ITERATIONS 
       AND A TOTAL OF          7 INNER ITERATIONS.
    ------------------------------------------------

 NO OUTPUT CONTROL FOR STRESS PERIOD   12   TIME STEP   29
 
 SOLVING FOR HEAD 
                                                   Max.-Head-Change                         Max.-Flux-Residual
  Residual-Control   Outer-Iter.   Inner-Iter.     Column Row Layer    Maximum-Head-Change  Column Row Layer    Maximum-Flux-Residual          L2-NORM 
          0                 1           2             4    7     1       0.3255484902E-01       4    7    1         0.1714344477E+01      0.3643134950E+01
          0                 2           2             4    7     1      -0.3166722278E-02       4    7    1        -0.1714360214E+00      0.3643114888E+00
          0                 3           2             4    7     1       0.2156418206E-03       4    7    1         0.1200051180E-01      0.2550154041E-01
          0                 4           1             4    7     1      -0.8580590840E-05       4    7    1        -0.4908216756E-03      0.1043003216E-02

    ------------------------------------------------
       NWT REQUIRED            4 OUTER ITERATIONS 
       AND A TOTAL OF          7 INNER ITERATIONS.
    ------------------------------------------------

 NO OUTPUT CONTROL FOR STRESS PERIOD   12   TIME STEP   30



 STREAM LISTING     PERIOD     12   STEP       30

 LAYER ROW COL. STREAM  RCH.  FLOW INTO     FLOW TO   FLOW OUT OF   OVRLND.     DIRECT     STREAM       STREAM     STREAM     STREAM   STREAMBED  STREAMBED
                SEG.NO.  NO.  STRM. RCH.    AQUIFER    STRM. RCH.    RUNOFF     PRECIP       ET          HEAD       DEPTH      WIDTH   CONDCTNC.   GRADIENT

   1    1    1     1     1    9.5403E+00  1.4421E-01   9.3961E+00  0.000E+00  0.000E+00  0.000E+00  1.09393E+03  8.839E-01  8.251E+00  3.713E-02  1.295E+00
   1    2    2     1     2    9.3961E+00  2.2163E-01   9.1745E+00  0.000E+00  0.000E+00  0.000E+00  1.08894E+03  8.782E-01  8.164E+00  5.715E-02  1.293E+00
   1    3    3     1     3    9.1745E+00  1.8736E-01   8.9871E+00  0.000E+00  0.000E+00  0.000E+00  1.08329E+03  8.718E-01  8.065E+00  4.839E-02  1.291E+00
   1    3    4     1     4    8.9871E+00  1.7119E-01   8.8160E+00  0.000E+00  0.000E+00  0.000E+00  1.07827E+03  8.661E-01  7.978E+00  4.428E-02  1.289E+00
   1    4    5     2     1    6.8160E+00  2.7666E-01   6.5393E+00  0.000E+00  0.000E+00  0.000E+00  1.07248E+03  5.469E-01  1.200E+01  7.800E-02  1.182E+00
   1    5    6     2     2    6.5393E+00  2.1209E-01   6.3272E+00  0.000E+00  0.000E+00  0.000E+00  1.06704E+03  5.348E-01  1.200E+01  6.000E-02  1.178E+00
   1    6    6     2     3    6.3272E+00  2.1145E-01   6.1158E+00  0.000E+00  0.000E+00  0.000E+00  1.06232E+03  5.242E-01  1.200E+01  6.000E-02  1.175E+00
   1    7    6     2     4    6.1158E+00  2.1081E-01   5.9050E+00  0.000E+00  0.000E+00  0.000E+00  1.05759E+03  5.134E-01  1.200E+01  6.000E-02  1.171E+00
   1    8    6     2     5    5.9050E+00  2.1015E-01   5.6948E+00  0.000E+00  0.000E+00  0.000E+00  1.05286E+03  5.026E-01  1.200E+01  6.000E-02  1.168E+00
   1    3    5     3     1    2.0000E+00  2.8252E-01   1.7175E+00  0.000E+00  0.000E+00  0.000E+00  1.07555E+03  1.909E+00  9.636E+00  7.227E-02  1.955E+00
   1    3    6     3     2    1.7175E+00  2.4905E-01   1.4684E+00  0.000E+00  0.000E+00  0.000E+00  1.07264E+03  1.727E+00  8.909E+00  6.682E-02  1.864E+00
   1    3    7     3     3    1.4684E+00  1.9718E-01   1.2712E+00  0.000E+00  0.000E+00  0.000E+00  1.06987E+03  1.555E+00  8.218E+00  5.547E-02  1.777E+00
   1    4    8     3     4    1.2712E+00  2.2567E-01   1.0456E+00  0.000E+00  0.000E+00  0.000E+00  1.06682E+03  1.364E+00  7.455E+00  6.709E-02  1.682E+00
   1    5    8     3     5    1.0456E+00  1.5790E-01   8.8768E-01  0.000E+00  0.000E+00  0.000E+00  1.06362E+03  1.164E+00  6.655E+00  4.991E-02  1.582E+00
   1    6    8     3     6    8.8768E-01  5.5980E-02   8.3170E-01  0.000E+00  0.000E+00  0.000E+00  1.06158E+03  1.036E+00  6.145E+00  1.844E-02  1.518E+00
   1    5   10     4     1    1.0000E+01  9.0919E-02   9.9091E+00  0.000E+00  0.000E+00  0.000E+00  1.07836E+03  6.368E-01  1.000E+01  2.500E-02  1.212E+00
   1    5    9     4     2    9.9091E+00  1.8158E-01   9.7275E+00  0.000E+00  0.000E+00  0.000E+00  1.07154E+03  6.315E-01  1.000E+01  5.000E-02  1.211E+00
   1    6    8     4     3    9.7275E+00  1.2689E-01   9.6006E+00  0.000E+00  0.000E+00  0.000E+00  1.06381E+03  6.256E-01  1.000E+01  3.500E-02  1.209E+00
   1    6    8     5     1    1.0432E+01  2.2686E-01   1.0205E+01  0.000E+00  0.000E+00  0.000E+00  1.05868E+03  6.790E-01  1.542E+01  6.166E-02  1.226E+00
   1    7    7     5     2    1.0205E+01  2.7894E-01   9.9265E+00  0.000E+00  0.000E+00  0.000E+00  1.05417E+03  6.732E-01  1.519E+01  7.594E-02  1.224E+00
   1    8    7     5     3    9.9265E+00  1.9221E-01   9.7343E+00  0.000E+00  0.000E+00  0.000E+00  1.04992E+03  6.676E-01  1.497E+01  5.241E-02  1.223E+00
   1    8    6     5     4    9.7343E+00  1.3577E-01   9.5985E+00  0.000E+00  0.000E+00  0.000E+00  1.04691E+03  6.637E-01  1.482E+01  3.706E-02  1.221E+00
   1    9    6     6     1    1.5293E+01  2.3430E-01   1.5059E+01  0.000E+00  0.000E+00  0.000E+00  1.04363E+03  9.050E-01  1.200E+01  6.000E-02  1.302E+00
   1   10    7     6     2    1.5059E+01  2.3380E-01   1.4825E+01  0.000E+00  0.000E+00  0.000E+00  1.03908E+03  8.966E-01  1.200E+01  6.000E-02  1.299E+00
   1   11    7     6     3    1.4825E+01  2.3329E-01   1.4592E+01  0.000E+00  0.000E+00  0.000E+00  1.03452E+03  8.882E-01  1.200E+01  6.000E-02  1.296E+00
   1   12    7     6     4    1.4592E+01  2.3278E-01   1.4359E+01  0.000E+00  0.000E+00  0.000E+00  1.02997E+03  8.797E-01  1.200E+01  6.000E-02  1.293E+00
   1   13    7     6     5    1.4359E+01 -1.5342E-02   1.4374E+01  0.000E+00  0.000E+00  0.000E+00  1.02678E+03  8.758E-01  1.200E+01  2.400E-01 -2.131E-02
   1   14    9     7     1    1.5000E+02  1.3683E+00   1.4863E+02  0.000E+00  0.000E+00  0.000E+00  1.03987E+03  2.288E+00  5.529E+01  5.593E-01  8.155E-01
   1   13    8     7     2    1.4863E+02  1.9128E+00   1.4672E+02  0.000E+00  0.000E+00  0.000E+00  1.03478E+03  2.279E+00  5.526E+01  6.148E-01  1.037E+00
   1   13    7     7     3    1.4672E+02  1.5860E+00   1.4513E+02  0.000E+00  0.000E+00  0.000E+00  1.02969E+03  2.270E+00  5.521E+01  5.584E-01  9.467E-01
   1   13    6     8     1    1.5951E+02  9.7854E-01   1.5853E+02  0.000E+00  0.000E+00  0.000E+00  1.02475E+03  2.879E+00  4.175E+01  4.254E-01  7.667E-01
   1   13    5     8     2    1.5853E+02  2.4084E-01   1.5829E+02  0.000E+00  0.000E+00  0.000E+00  1.01850E+03  2.875E+00  4.169E+01  4.248E-01  1.890E-01
   1   13    4     8     3    1.5829E+02 -2.1930E+00   1.6048E+02  0.000E+00  0.000E+00  0.000E+00  1.01226E+03  2.882E+00  4.178E+01  4.258E+00 -1.717E-01
   1   13    3     8     4    1.6048E+02 -3.5418E+00   1.6402E+02  0.000E+00  0.000E+00  0.000E+00  1.00603E+03  2.901E+00  4.206E+01  4.287E+00 -2.754E-01
   1   13    2     8     5    1.6402E+02 -2.5635E+00   1.6659E+02  0.000E+00  0.000E+00  0.000E+00  9.99796E+02  2.921E+00  4.236E+01  4.317E+00 -1.980E-01
   1   13    1     8     6    1.6659E+02 -1.9861E+00   1.6857E+02  0.000E+00  0.000E+00  0.000E+00  9.94811E+02  2.936E+00  4.258E+01  2.603E+00 -2.543E-01
   1    8    6     9     1    0.0000E+00  0.0000E+00   0.0000E+00  0.000E+00  0.000E+00  0.000E+00  1.07875E+03  0.000E+00  4.000E+00  0.000E+00  1.000E+00
   1    8    5     9     2    0.0000E+00  0.0000E+00   0.0000E+00  0.000E+00  0.000E+00  0.000E+00  1.07825E+03  0.000E+00  4.000E+00  0.000E+00  1.000E+00





UNSATURATED ZONE PACKAGE VOLUMETRIC BUDGET FOR  TIME STEP    30 STRESS PERIOD   12
  ------------------------------------------------------------------------------



     CUMULATIVE VOLUMES      L**3       RATES FOR THIS TIME STEP      L**3/T
     ------------------                 ------------------------

           IN:                                      IN:
           ---                                      ---
        INFILTRATION =   428481030.9893          INFILTRATION =           0.8475

          OUT:                                     OUT:
          ----                                     ----
              UZF ET =   428067023.1506                UZF ET =           0.7500
        UZF RECHARGE =       73224.0000          UZF RECHARGE =       0.0000E+00

            IN - OUT =      340783.8387              IN - OUT =       9.7500E-02

          STORAGE:                                 STORAGE:
          --------                                 --------
      STORAGE CHANGE =      340783.6848        STORAGE CHANGE =       9.7500E-02

 PERCENT DISCREPANCY IS DIFFERENCE BETWEEN IN-OUT MINUS CHANGE IN STORAGE
 DIVIDED BY THE AVERAGE OF IN AND OUT TIMES 100

 PERCENT DISCREPANCY =           0.00     PERCENT DISCREPANCY =           0.00






1
  VOLUMETRIC BUDGET FOR AGRICULTURAL FIELDS AT  END OF TIME STEP   30, STRESS PERIOD  12
  ------------------------------------------------------------------------------

     CUMULATIVE VOLUMES      L**3       RATES FOR THIS TIME STEP      L**3/T
     ------------------                 ------------------------

           IN:                                      IN:
           ---                                      ---
               AG WELLS  =   403889344.0000                 AG WELLS  =           0.0000
      DIVERSION SEGMENTS =           0.0000        DIVERSION SEGMENTS =           0.0000
       IRRIGATION PONDS  =           0.0000         IRRIGATION PONDS  =           0.0000
           GW IRRIGATION =           0.0000             GW IRRIGATION =           0.0000
           SW IRRIGATION =           0.0000             SW IRRIGATION =           0.0000
        SYSTEM LOSSES GW =           0.0000          SYSTEM LOSSES GW =           0.0000
        SYSTEM LOSSES SW =           0.0000          SYSTEM LOSSES SW =           0.0000

                TOTAL IN =   403889344.0000                  TOTAL IN =           0.0000

          OUT:                                     OUT:
          ----                                     ----
               AG WELLS  =           0.0000                 AG WELLS  =           0.0000
      DIVERSION SEGMENTS =           0.0000        DIVERSION SEGMENTS =           0.0000
       IRRIGATION PONDS  =           0.0000         IRRIGATION PONDS  =           0.0000
           GW IRRIGATION =   403889344.0000             GW IRRIGATION =           0.0000
           SW IRRIGATION =           0.0000             SW IRRIGATION =           0.0000
        SYSTEM LOSSES GW =           0.0000          SYSTEM LOSSES GW =           0.0000
        SYSTEM LOSSES SW =           0.0000          SYSTEM LOSSES SW =           0.0000

               TOTAL OUT =   403889344.0000                 TOTAL OUT =           0.0000

                IN - OUT =           0.0000                  IN - OUT =           0.0000

     PERCENT DISCREPANCY =           0.00         PERCENT DISCREPANCY =           0.00



1
  VOLUMETRIC BUDGET FOR ENTIRE MODEL AT END OF TIME STEP   30, STRESS PERIOD  12
  ------------------------------------------------------------------------------

     CUMULATIVE VOLUMES      L**3       RATES FOR THIS TIME STEP      L**3/T
     ------------------                 ------------------------

           IN:                                      IN:
           ---                                      ---
             STORAGE     =   499196544.0000               STORAGE     =           9.5186
       CONSTANT HEAD     =           0.0000         CONSTANT HEAD     =           0.0000
     HEAD DEP BOUNDS     =     8354168.0000       HEAD DEP BOUNDS     =           0.2880
      STREAM LEAKAGE     =   343608448.0000        STREAM LEAKAGE     =          11.2677
        UZF RECHARGE     =       73223.9531          UZF RECHARGE     =           0.0000
               GW ET     =           0.0000                 GW ET     =           0.0000
     SURFACE LEAKAGE     =           0.0000       SURFACE LEAKAGE     =           0.0000
           AG WELLS      =           0.0000             AG WELLS      =           0.0000

                TOTAL IN =   851232384.0000                  TOTAL IN =          21.0742

          OUT:                                     OUT:
          ----                                     ----
             STORAGE     =   141189120.0000               STORAGE     =          10.4866
       CONSTANT HEAD     =           0.0000         CONSTANT HEAD     =           0.0000
     HEAD DEP BOUNDS     =     8394821.0000       HEAD DEP BOUNDS     =           0.2878
      STREAM LEAKAGE     =   297761344.0000        STREAM LEAKAGE     =          10.2998
        UZF RECHARGE     =           0.0000          UZF RECHARGE     =           0.0000
               GW ET     =           0.0000                 GW ET     =           0.0000
     SURFACE LEAKAGE     =           0.0000       SURFACE LEAKAGE     =           0.0000
           AG WELLS      =   403889344.0000             AG WELLS      =           0.0000

               TOTAL OUT =   851234624.0000                 TOTAL OUT =          21.0742

                IN - OUT =       -2240.0000                  IN - OUT =       7.6294E-06

     PERCENT DISCREPANCY =          -0.00         PERCENT DISCREPANCY =           0.00






         TIME SUMMARY AT END OF TIME STEP   30 IN STRESS PERIOD   12
                    SECONDS     MINUTES      HOURS       DAYS        YEARS
                    -----------------------------------------------------------
   TIME STEP LENGTH  87667.      1461.1      24.352      1.0147     2.77799E-03
 STRESS PERIOD TIME 2.63000E+06  43833.      730.56      30.440     8.33397E-02
         TOTAL TIME 2.90163E+07 4.83606E+05  8060.1      335.84     0.91947    
1
1
                            STRESS PERIOD NO.   13, LENGTH =   2630000.    
                            -----------------------------------------------

                              NUMBER OF TIME STEPS =    30

                               MULTIPLIER FOR DELT =     1.000

                            INITIAL TIME STEP SIZE =   87666.66    

 REUSING NON-PARAMETER GHB CELLS FROM LAST STRESS PERIOD

      2 GHB CELLS

 REUSING STREAM SEGMENT DATA FROM LAST STRESS PERIOD



            AREAL INFILTRATION RATE
 READING ON UNIT   19 WITH FORMAT: (FREE)              

            1           2           3           4           5           6           7           8           9          10
 ........................................................................................................................
   1   1.0000E-10  2.0000E-10   0.000       0.000       0.000       0.000       0.000       0.000       0.000       0.000    
   2   2.0000E-10  1.0000E-10  2.0000E-10   0.000       0.000      8.0000E-10  8.0000E-10  5.0000E-10   0.000       0.000    
   3    0.000      5.0000E-10  1.0000E-10  1.0000E-10  8.0000E-10  8.0000E-10  5.0000E-10  5.0000E-10   0.000       0.000    
   4   8.0000E-10  5.0000E-10  1.0000E-10  1.0000E-10  1.0000E-10  1.0000E-10  1.0000E-10  1.0000E-10  2.0000E-10   0.000    
   5   8.0000E-10  5.0000E-10  1.0000E-10  1.0000E-10  1.0000E-10  1.0000E-10  1.0000E-10  1.0000E-10  1.0000E-10  1.0000E-10
   6   8.0000E-10  5.0000E-10  5.0000E-10  2.0000E-10  2.0000E-10  1.0000E-10  1.0000E-10  1.0000E-10  1.0000E-10  5.0000E-10
   7   8.0000E-10  5.0000E-10  5.0000E-10  2.0000E-10  2.0000E-10  1.0000E-10  1.0000E-10  2.0000E-10  2.0000E-10   0.000    
   8    0.000      5.0000E-10  5.0000E-10  2.0000E-10  2.0000E-10  1.0000E-10  1.0000E-10  2.0000E-10  5.0000E-10   0.000    
   9    0.000      5.0000E-10  5.0000E-10  2.0000E-10  2.0000E-10  1.0000E-10  1.0000E-10  2.0000E-10  5.0000E-10   0.000    
  10    0.000      5.0000E-10  5.0000E-10  2.0000E-10  2.0000E-10  1.0000E-10  1.0000E-10  2.0000E-10  5.0000E-10  8.0000E-10
  11    0.000      1.0000E-10  1.0000E-10  1.0000E-10  1.0000E-10  1.0000E-10  1.0000E-10  2.0000E-10  5.0000E-10   0.000    
  12   1.0000E-10  1.0000E-10  1.0000E-10  1.0000E-10  1.0000E-10  1.0000E-10  1.0000E-10  1.0000E-10  2.0000E-10   0.000    
  13   1.0000E-10  1.0000E-10  2.0000E-10  2.0000E-10  2.0000E-10  2.0000E-10  2.0000E-10  1.0000E-10  1.0000E-10   0.000    
  14    0.000      2.0000E-10  5.0000E-10  5.0000E-10  5.0000E-10  5.0000E-10  5.0000E-10  2.0000E-10  1.0000E-10   0.000    
  15    0.000       0.000      8.0000E-10  8.0000E-10  8.0000E-10  8.0000E-10   0.000       0.000       0.000       0.000    

                  ET RATE =  5.000000E-10

 USING ET EXTINCTION DEPTH FROM PREVIOUS STRESS PERIOD. CURRENT PERIOD IS:      13

 USING EXTINCTION WATER CONTENT FROM PREVIOUS STRESS PERIOD. CURRENT PERIOD IS:      13

 USING AIR ENTRY PRESSURE FROM PREVIOUS STRESS PERIOD. CURRENT PERIOD IS:      13

 USING ROOT PRESSURE HEAD FROM PREVIOUS STRESS PERIOD. CURRENT PERIOD IS:      13

 USING ROOT ACTIVITY FROM PREVIOUS STRESS PERIOD. CURRENT PERIOD IS:      13

 PROCESSING AG STRESS PERIOD DATA

 READING AG STRESS PERIOD DATA

 READING IRRIGATION SEGMENT

 READING IRRIGATION WELL

 READING SUPPLEMENTAL WELL

 NO IRRPOND OR REUSING IRRPOND DATA FROM LAST STRESS PERIOD

 END PROCESSING AG STRESS PERIOD DATA OPTIONS
 
 SOLVING FOR HEAD 
                                                   Max.-Head-Change                         Max.-Flux-Residual
  Residual-Control   Outer-Iter.   Inner-Iter.     Column Row Layer    Maximum-Head-Change  Column Row Layer    Maximum-Flux-Residual          L2-NORM 
          0                 1           2             4    7     1       0.3212250543E-01       4    7    1         0.1691486249E+01      0.3604425573E+01
          0                 2           2             4    7     1      -0.3124666435E-02       4    7    1        -0.1691501577E+00      0.3604367332E+00
          0                 3           2             4    7     1       0.2127779794E-03       4    7    1         0.1184050165E-01      0.2522984370E-01
          0                 4           1             4    7     1      -0.8466636160E-05       4    7    1        -0.4842772630E-03      0.1031794332E-02

    ------------------------------------------------
       NWT REQUIRED            4 OUTER ITERATIONS 
       AND A TOTAL OF          7 INNER ITERATIONS.
    ------------------------------------------------

 NO OUTPUT CONTROL FOR STRESS PERIOD   13   TIME STEP    1
 
 SOLVING FOR HEAD 
                                                   Max.-Head-Change                         Max.-Flux-Residual
  Residual-Control   Outer-Iter.   Inner-Iter.     Column Row Layer    Maximum-Head-Change  Column Row Layer    Maximum-Flux-Residual          L2-NORM 
          0                 1           2             4    7     1       0.3169769326E-01       4    7    1         0.1669026002E+01      0.3563836273E+01
          0                 2           2             4    7     1      -0.3083343209E-02       4    7    1        -0.1669040932E+00      0.3563783116E+00
          0                 3           2             4    7     1       0.2099640267E-03       4    7    1         0.1168327744E-01      0.2494594904E-01
          0                 4           1             4    7     1      -0.8354666279E-05       4    7    1        -0.4778467817E-03      0.1020355863E-02

    ------------------------------------------------
       NWT REQUIRED            4 OUTER ITERATIONS 
       AND A TOTAL OF          7 INNER ITERATIONS.
    ------------------------------------------------

 NO OUTPUT CONTROL FOR STRESS PERIOD   13   TIME STEP    2
 
 SOLVING FOR HEAD 
                                                   Max.-Head-Change                         Max.-Flux-Residual
  Residual-Control   Outer-Iter.   Inner-Iter.     Column Row Layer    Maximum-Head-Change  Column Row Layer    Maximum-Flux-Residual          L2-NORM 
          0                 1           2             4    7     1       0.3128013341E-01       4    7    1         0.1646948940E+01      0.3523965762E+01
          0                 2           2             4    7     1      -0.3042725454E-02       4    7    1        -0.1646963482E+00      0.3523917610E+00
          0                 3           2             4    7     1       0.2071981136E-03       4    7    1         0.1152873559E-01      0.2466699645E-01
          0                 4           1             4    7     1      -0.8244607747E-05       4    7    1        -0.4715260047E-03      0.1008861071E-02

    ------------------------------------------------
       NWT REQUIRED            4 OUTER ITERATIONS 
       AND A TOTAL OF          7 INNER ITERATIONS.
    ------------------------------------------------

 NO OUTPUT CONTROL FOR STRESS PERIOD   13   TIME STEP    3
 
 SOLVING FOR HEAD 
                                                   Max.-Head-Change                         Max.-Flux-Residual
  Residual-Control   Outer-Iter.   Inner-Iter.     Column Row Layer    Maximum-Head-Change  Column Row Layer    Maximum-Flux-Residual          L2-NORM 
          0                 1           2             4    7     1       0.3086982013E-01       4    7    1         0.1625255198E+01      0.3484793341E+01
          0                 2           2             4    7     1      -0.3002812606E-02       4    7    1        -0.1625269364E+00      0.3484747690E+00
          0                 3           2             4    7     1       0.2044802021E-03       4    7    1         0.1137687706E-01      0.2439276629E-01
          0                 4           1             4    7     1      -0.8136459412E-05       4    7    1        -0.4653149786E-03      0.9976407223E-03

    ------------------------------------------------
       NWT REQUIRED            4 OUTER ITERATIONS 
       AND A TOTAL OF          7 INNER ITERATIONS.
    ------------------------------------------------

 NO OUTPUT CONTROL FOR STRESS PERIOD   13   TIME STEP    4
 
 SOLVING FOR HEAD 
                                                   Max.-Head-Change                         Max.-Flux-Residual
  Residual-Control   Outer-Iter.   Inner-Iter.     Column Row Layer    Maximum-Head-Change  Column Row Layer    Maximum-Flux-Residual          L2-NORM 
          0                 1           2             4    7     1       0.3046647983E-01       4    7    1         0.1603929872E+01      0.3446305602E+01
          0                 2           2             4    7     1      -0.2963578054E-02       4    7    1        -0.1603943671E+00      0.3446263326E+00
          0                 3           2             4    7     1       0.2018084800E-03       4    7    1         0.1122759749E-01      0.2412337811E-01
          0                 4           1             4    7     1      -0.8030149435E-05       4    7    1        -0.4592094454E-03      0.9866185256E-03

    ------------------------------------------------
       NWT REQUIRED            4 OUTER ITERATIONS 
       AND A TOTAL OF          7 INNER ITERATIONS.
    ------------------------------------------------

 NO OUTPUT CONTROL FOR STRESS PERIOD   13   TIME STEP    5
 
 SOLVING FOR HEAD 
                                                   Max.-Head-Change                         Max.-Flux-Residual
  Residual-Control   Outer-Iter.   Inner-Iter.     Column Row Layer    Maximum-Head-Change  Column Row Layer    Maximum-Flux-Residual          L2-NORM 
          0                 1           2             4    7     1       0.3007024809E-01       4    7    1         0.1582980689E+01      0.3408489678E+01
          0                 2           2             4    7     1      -0.2925034986E-02       4    7    1        -0.1582994131E+00      0.3408450078E+00
          0                 3           2             4    7     1       0.1991838449E-03       4    7    1         0.1108095099E-01      0.2385874751E-01
          0                 4           1             4    7     1      -0.7925712353E-05       4    7    1        -0.4532115763E-03      0.9758189902E-03

    ------------------------------------------------
       NWT REQUIRED            4 OUTER ITERATIONS 
       AND A TOTAL OF          7 INNER ITERATIONS.
    ------------------------------------------------

 NO OUTPUT CONTROL FOR STRESS PERIOD   13   TIME STEP    6
 
 SOLVING FOR HEAD 
                                                   Max.-Head-Change                         Max.-Flux-Residual
  Residual-Control   Outer-Iter.   Inner-Iter.     Column Row Layer    Maximum-Head-Change  Column Row Layer    Maximum-Flux-Residual          L2-NORM 
          0                 1           2             4    7     1       0.2968084635E-01       4    7    1         0.1562392766E+01      0.3371326690E+01
          0                 2           2             4    7     1      -0.2887156304E-02       4    7    1        -0.1562405861E+00      0.3371290036E+00
          0                 3           2             4    7     1       0.1966044518E-03       4    7    1         0.1093683335E-01      0.2359865970E-01
          0                 4           1             4    7     1      -0.7823075982E-05       4    7    1        -0.4473171612E-03      0.9651621288E-03

    ------------------------------------------------
       NWT REQUIRED            4 OUTER ITERATIONS 
       AND A TOTAL OF          7 INNER ITERATIONS.
    ------------------------------------------------

 NO OUTPUT CONTROL FOR STRESS PERIOD   13   TIME STEP    7
 
 SOLVING FOR HEAD 
                                                   Max.-Head-Change                         Max.-Flux-Residual
  Residual-Control   Outer-Iter.   Inner-Iter.     Column Row Layer    Maximum-Head-Change  Column Row Layer    Maximum-Flux-Residual          L2-NORM 
          0                 1           2             4    7     1       0.2929813579E-01       4    7    1         0.1542158965E+01      0.3334792767E+01
          0                 2           2             4    7     1      -0.2849928506E-02       4    7    1        -0.1542171721E+00      0.3334758263E+00
          0                 3           2             4    7     1       0.1940693823E-03       4    7    1         0.1079519465E-01      0.2334293473E-01
          0                 4           1             4    7     1      -0.7722203712E-05       4    7    1        -0.4415241419E-03      0.9546839613E-03

    ------------------------------------------------
       NWT REQUIRED            4 OUTER ITERATIONS 
       AND A TOTAL OF          7 INNER ITERATIONS.
    ------------------------------------------------

 NO OUTPUT CONTROL FOR STRESS PERIOD   13   TIME STEP    8
 
 SOLVING FOR HEAD 
                                                   Max.-Head-Change                         Max.-Flux-Residual
  Residual-Control   Outer-Iter.   Inner-Iter.     Column Row Layer    Maximum-Head-Change  Column Row Layer    Maximum-Flux-Residual          L2-NORM 
          0                 1           2             4    7     1       0.2892212025E-01       4    7    1         0.1522279393E+01      0.3298886972E+01
          0                 2           2             4    7     1      -0.2813351965E-02       4    7    1        -0.1522291821E+00      0.3298854690E+00
          0                 3           2             4    7     1       0.1915786597E-03       4    7    1         0.1065603559E-01      0.2309163794E-01
          0                 4           1             4    7     1      -0.7623094850E-05       4    7    1        -0.4358325070E-03      0.9444268910E-03

    ------------------------------------------------
       NWT REQUIRED            4 OUTER ITERATIONS 
       AND A TOTAL OF          7 INNER ITERATIONS.
    ------------------------------------------------

 NO OUTPUT CONTROL FOR STRESS PERIOD   13   TIME STEP    9
 
 SOLVING FOR HEAD 
                                                   Max.-Head-Change                         Max.-Flux-Residual
  Residual-Control   Outer-Iter.   Inner-Iter.     Column Row Layer    Maximum-Head-Change  Column Row Layer    Maximum-Flux-Residual          L2-NORM 
          0                 1           2             4    7     1       0.2855239499E-01       4    7    1         0.1502732333E+01      0.3263584598E+01
          0                 2           2             4    7     1      -0.2777387309E-02       4    7    1        -0.1502744442E+00      0.3263553937E+00
          0                 3           2             4    7     1       0.1891296048E-03       4    7    1         0.1051920419E-01      0.2284453510E-01
          0                 4           1             4    7     1      -0.7525644748E-05       4    7    1        -0.4302360990E-03      0.9343026315E-03

    ------------------------------------------------
       NWT REQUIRED            4 OUTER ITERATIONS 
       AND A TOTAL OF          7 INNER ITERATIONS.
    ------------------------------------------------

 NO OUTPUT CONTROL FOR STRESS PERIOD   13   TIME STEP   10
 
 SOLVING FOR HEAD 
                                                   Max.-Head-Change                         Max.-Flux-Residual
  Residual-Control   Outer-Iter.   Inner-Iter.     Column Row Layer    Maximum-Head-Change  Column Row Layer    Maximum-Flux-Residual          L2-NORM 
          0                 1           2             4    7     1       0.2818923713E-01       4    7    1         0.1483533331E+01      0.3228876671E+01
          0                 2           2             4    7     1      -0.2742061495E-02       4    7    1        -0.1483545128E+00      0.3228848077E+00
          0                 3           2             4    7     1       0.1867240522E-03       4    7    1         0.1038480923E-01      0.2260163620E-01
          0                 4           1             4    7     1      -0.7429925473E-05       4    7    1        -0.4247393401E-03      0.9243770004E-03

    ------------------------------------------------
       NWT REQUIRED            4 OUTER ITERATIONS 
       AND A TOTAL OF          7 INNER ITERATIONS.
    ------------------------------------------------

 NO OUTPUT CONTROL FOR STRESS PERIOD   13   TIME STEP   11
 
 SOLVING FOR HEAD 
                                                   Max.-Head-Change                         Max.-Flux-Residual
  Residual-Control   Outer-Iter.   Inner-Iter.     Column Row Layer    Maximum-Head-Change  Column Row Layer    Maximum-Flux-Residual          L2-NORM 
          0                 1           2             4    7     1       0.2783223809E-01       4    7    1         0.1464660222E+01      0.3194740129E+01
          0                 2           2             4    7     1      -0.2707334779E-02       4    7    1        -0.1464671718E+00      0.3194712503E+00
          0                 3           2             4    7     1       0.1843592958E-03       4    7    1         0.1025269557E-01      0.2236267699E-01
          0                 4           1             4    7     1      -0.7335829728E-05       4    7    1        -0.4193358789E-03      0.9146278510E-03

    ------------------------------------------------
       NWT REQUIRED            4 OUTER ITERATIONS 
       AND A TOTAL OF          7 INNER ITERATIONS.
    ------------------------------------------------

 NO OUTPUT CONTROL FOR STRESS PERIOD   13   TIME STEP   12
 
 SOLVING FOR HEAD 
                                                   Max.-Head-Change                         Max.-Flux-Residual
  Residual-Control   Outer-Iter.   Inner-Iter.     Column Row Layer    Maximum-Head-Change  Column Row Layer    Maximum-Flux-Residual          L2-NORM 
          0                 1           2             4    7     1       0.2748127282E-01       4    7    1         0.1446106436E+01      0.3161170583E+01
          0                 2           2             4    7     1      -0.2673194997E-02       4    7    1        -0.1446117637E+00      0.3161144005E+00
          0                 3           2             4    7     1       0.1820345076E-03       4    7    1         0.1012281724E-01      0.2212770764E-01
          0                 4           1             4    7     1      -0.7243323896E-05       4    7    1        -0.4140238450E-03      0.9050050226E-03

    ------------------------------------------------
       NWT REQUIRED            4 OUTER ITERATIONS 
       AND A TOTAL OF          7 INNER ITERATIONS.
    ------------------------------------------------

 NO OUTPUT CONTROL FOR STRESS PERIOD   13   TIME STEP   13
 
 SOLVING FOR HEAD 
                                                   Max.-Head-Change                         Max.-Flux-Residual
  Residual-Control   Outer-Iter.   Inner-Iter.     Column Row Layer    Maximum-Head-Change  Column Row Layer    Maximum-Flux-Residual          L2-NORM 
          0                 1           2             4    7     1       0.2713635517E-01       4    7    1         0.1427872796E+01      0.3128152943E+01
          0                 2           2             4    7     1      -0.2639643407E-02       4    7    1        -0.1427883711E+00      0.3128000736E+00
          0                 3           2             4    7     1       0.1797497727E-03       4    7    1         0.9995179989E-02      0.2189571800E-01
          0                 4           1             4    7     1      -0.7152411889E-05       4    7    1        -0.4088034548E-03      0.8955134269E-03

    ------------------------------------------------
       NWT REQUIRED            4 OUTER ITERATIONS 
       AND A TOTAL OF          7 INNER ITERATIONS.
    ------------------------------------------------

 NO OUTPUT CONTROL FOR STRESS PERIOD   13   TIME STEP   14
 
 SOLVING FOR HEAD 
                                                   Max.-Head-Change                         Max.-Flux-Residual
  Residual-Control   Outer-Iter.   Inner-Iter.     Column Row Layer    Maximum-Head-Change  Column Row Layer    Maximum-Flux-Residual          L2-NORM 
          0                 1           2             4    7     1       0.2679749666E-01       4    7    1         0.1409960026E+01      0.3095681261E+01
          0                 2           2             4    7     1      -0.2606681393E-02       4    7    1        -0.1409970664E+00      0.3095657816E+00
          0                 3           2             4    7     1       0.1775051859E-03       4    7    1         0.9869788849E-02      0.2166932959E-01
          0                 4           1             4    7     1      -0.7063098200E-05       4    7    1        -0.4036749772E-03      0.8862536655E-03

    ------------------------------------------------
       NWT REQUIRED            4 OUTER ITERATIONS 
       AND A TOTAL OF          7 INNER ITERATIONS.
    ------------------------------------------------

 NO OUTPUT CONTROL FOR STRESS PERIOD   13   TIME STEP   15
 
 SOLVING FOR HEAD 
                                                   Max.-Head-Change                         Max.-Flux-Residual
  Residual-Control   Outer-Iter.   Inner-Iter.     Column Row Layer    Maximum-Head-Change  Column Row Layer    Maximum-Flux-Residual          L2-NORM 
          0                 1           2             4    7     1       0.2646430189E-01       4    7    1         0.1392346786E+01      0.3063836345E+01
          0                 2           2             4    7     1      -0.2574270230E-02       4    7    1        -0.1392357153E+00      0.3063813784E+00
          0                 3           2             4    7     1       0.1752981095E-03       4    7    1         0.9746494462E-02      0.2144644657E-01
          0                 4           1             4    7     1      -0.6975276448E-05       4    7    1        -0.3986322247E-03      0.8771503173E-03

    ------------------------------------------------
       NWT REQUIRED            4 OUTER ITERATIONS 
       AND A TOTAL OF          7 INNER ITERATIONS.
    ------------------------------------------------

 NO OUTPUT CONTROL FOR STRESS PERIOD   13   TIME STEP   16
 
 SOLVING FOR HEAD 
                                                   Max.-Head-Change                         Max.-Flux-Residual
  Residual-Control   Outer-Iter.   Inner-Iter.     Column Row Layer    Maximum-Head-Change  Column Row Layer    Maximum-Flux-Residual          L2-NORM 
          0                 1           2             4    7     1       0.2613679322E-01       4    7    1         0.1375034513E+01      0.3032499217E+01
          0                 2           2             4    7     1      -0.2542412180E-02       4    7    1        -0.1375044617E+00      0.3032477270E+00
          0                 3           2             4    7     1       0.1731286983E-03       4    7    1         0.9625306923E-02      0.2122708007E-01
          0                 4           1             4    7     1      -0.6888953428E-05       4    7    1        -0.3936756425E-03      0.8681683854E-03

    ------------------------------------------------
       NWT REQUIRED            4 OUTER ITERATIONS 
       AND A TOTAL OF          7 INNER ITERATIONS.
    ------------------------------------------------

 NO OUTPUT CONTROL FOR STRESS PERIOD   13   TIME STEP   17
 
 SOLVING FOR HEAD 
                                                   Max.-Head-Change                         Max.-Flux-Residual
  Residual-Control   Outer-Iter.   Inner-Iter.     Column Row Layer    Maximum-Head-Change  Column Row Layer    Maximum-Flux-Residual          L2-NORM 
          0                 1           2             4    7     1       0.2581485220E-01       4    7    1         0.1358017053E+01      0.3001662951E+01
          0                 2           2             4    7     1      -0.2511095721E-02       4    7    1        -0.1358026902E+00      0.3001641761E+00
          0                 3           2             4    7     1       0.1709961675E-03       4    7    1         0.9506183109E-02      0.2101123615E-01
          0                 4           1             4    7     1      -0.6804098055E-05       4    7    1        -0.3888034778E-03      0.8593344690E-03

    ------------------------------------------------
       NWT REQUIRED            4 OUTER ITERATIONS 
       AND A TOTAL OF          7 INNER ITERATIONS.
    ------------------------------------------------

 NO OUTPUT CONTROL FOR STRESS PERIOD   13   TIME STEP   18
 
 SOLVING FOR HEAD 
                                                   Max.-Head-Change                         Max.-Flux-Residual
  Residual-Control   Outer-Iter.   Inner-Iter.     Column Row Layer    Maximum-Head-Change  Column Row Layer    Maximum-Flux-Residual          L2-NORM 
          0                 1           2             4    7     1       0.2549849833E-01       4    7    1         0.1341295575E+01      0.2971319621E+01
          0                 2           2             4    7     1      -0.2480322777E-02       4    7    1        -0.1341305175E+00      0.2971299567E+00
          0                 3           2             4    7     1       0.1689006467E-03       4    7    1         0.9389131191E-02      0.2079885963E-01
          0                 4           1             4    7     1      -0.6720715739E-05       4    7    1        -0.3840160496E-03      0.8506714648E-03

    ------------------------------------------------
       NWT REQUIRED            4 OUTER ITERATIONS 
       AND A TOTAL OF          7 INNER ITERATIONS.
    ------------------------------------------------

 NO OUTPUT CONTROL FOR STRESS PERIOD   13   TIME STEP   19
 
 SOLVING FOR HEAD 
                                                   Max.-Head-Change                         Max.-Flux-Residual
  Residual-Control   Outer-Iter.   Inner-Iter.     Column Row Layer    Maximum-Head-Change  Column Row Layer    Maximum-Flux-Residual          L2-NORM 
          0                 1           2             4    7     1       0.2518734534E-01       4    7    1         0.1324849160E+01      0.2941451898E+01
          0                 2           2             4    7     1      -0.2450055757E-02       4    7    1        -0.1324858518E+00      0.2941428437E+00
          0                 3           2             4    7     1       0.1668395784E-03       4    7    1         0.9274004761E-02      0.2058940324E-01
          0                 4           1             4    7     1      -0.6638704017E-05       4    7    1        -0.3793073761E-03      0.8421006305E-03

    ------------------------------------------------
       NWT REQUIRED            4 OUTER ITERATIONS 
       AND A TOTAL OF          7 INNER ITERATIONS.
    ------------------------------------------------

 NO OUTPUT CONTROL FOR STRESS PERIOD   13   TIME STEP   20
 
 SOLVING FOR HEAD 
                                                   Max.-Head-Change                         Max.-Flux-Residual
  Residual-Control   Outer-Iter.   Inner-Iter.     Column Row Layer    Maximum-Head-Change  Column Row Layer    Maximum-Flux-Residual          L2-NORM 
          0                 1           2             4    7     1       0.2488169010E-01       4    7    1         0.1308694330E+01      0.2912057341E+01
          0                 2           2             4    7     1      -0.2420323490E-02       4    7    1        -0.1308703453E+00      0.2912038810E+00
          0                 3           2             4    7     1       0.1648149247E-03       4    7    1         0.9160919507E-02      0.2038406145E-01
          0                 4           1             4    7     1      -0.6558140831E-05       4    7    1        -0.3746821649E-03      0.8337011204E-03

    ------------------------------------------------
       NWT REQUIRED            4 OUTER ITERATIONS 
       AND A TOTAL OF          7 INNER ITERATIONS.
    ------------------------------------------------

 NO OUTPUT CONTROL FOR STRESS PERIOD   13   TIME STEP   21
 
 SOLVING FOR HEAD 
                                                   Max.-Head-Change                         Max.-Flux-Residual
  Residual-Control   Outer-Iter.   Inner-Iter.     Column Row Layer    Maximum-Head-Change  Column Row Layer    Maximum-Flux-Residual          L2-NORM 
          0                 1           2             4    7     1       0.2458100775E-01       4    7    1         0.1292802620E+01      0.2883119313E+01
          0                 2           2             4    7     1      -0.2391074957E-02       4    7    1        -0.1292811514E+00      0.2883101217E+00
          0                 3           2             4    7     1       0.1628232116E-03       4    7    1         0.9049676096E-02      0.2018148373E-01
          0                 4           1             4    7     1      -0.6478888948E-05       4    7    1        -0.3701323265E-03      0.8254095123E-03

    ------------------------------------------------
       NWT REQUIRED            4 OUTER ITERATIONS 
       AND A TOTAL OF          7 INNER ITERATIONS.
    ------------------------------------------------

 NO OUTPUT CONTROL FOR STRESS PERIOD   13   TIME STEP   22
 
 SOLVING FOR HEAD 
                                                   Max.-Head-Change                         Max.-Flux-Residual
  Residual-Control   Outer-Iter.   Inner-Iter.     Column Row Layer    Maximum-Head-Change  Column Row Layer    Maximum-Flux-Residual          L2-NORM 
          0                 1           2             4    7     1       0.2428546624E-01       4    7    1         0.1277183366E+01      0.2854627663E+01
          0                 2           2             4    7     1      -0.2362326498E-02       4    7    1        -0.1277192038E+00      0.2854609876E+00
          0                 3           2             4    7     1       0.1608655511E-03       4    7    1         0.8940339919E-02      0.1998205572E-01
          0                 4           1             4    7     1      -0.6400991541E-05       4    7    1        -0.3656604608E-03      0.8172651596E-03

    ------------------------------------------------
       NWT REQUIRED            4 OUTER ITERATIONS 
       AND A TOTAL OF          7 INNER ITERATIONS.
    ------------------------------------------------

 NO OUTPUT CONTROL FOR STRESS PERIOD   13   TIME STEP   23
 
 SOLVING FOR HEAD 
                                                   Max.-Head-Change                         Max.-Flux-Residual
  Residual-Control   Outer-Iter.   Inner-Iter.     Column Row Layer    Maximum-Head-Change  Column Row Layer    Maximum-Flux-Residual          L2-NORM 
          0                 1           2             4    7     1       0.2399495290E-01       4    7    1         0.1261830656E+01      0.2826578425E+01
          0                 2           2             4    7     1      -0.2334067152E-02       4    7    1        -0.1261839111E+00      0.2826561008E+00
          0                 3           2             4    7     1       0.1589411972E-03       4    7    1         0.8832869584E-02      0.1978571233E-01
          0                 4           1             4    7     1      -0.6324419599E-05       4    7    1        -0.3612649011E-03      0.8092254753E-03

    ------------------------------------------------
       NWT REQUIRED            4 OUTER ITERATIONS 
       AND A TOTAL OF          7 INNER ITERATIONS.
    ------------------------------------------------

 NO OUTPUT CONTROL FOR STRESS PERIOD   13   TIME STEP   24
 
 SOLVING FOR HEAD 
                                                   Max.-Head-Change                         Max.-Flux-Residual
  Residual-Control   Outer-Iter.   Inner-Iter.     Column Row Layer    Maximum-Head-Change  Column Row Layer    Maximum-Flux-Residual          L2-NORM 
          0                 1           2             4    7     1       0.2370922687E-01       4    7    1         0.1246731335E+01      0.2798960551E+01
          0                 2           2             4    7     1      -0.2306273490E-02       4    7    1        -0.1246739581E+00      0.2798943519E+00
          0                 3           2             4    7     1       0.1570485553E-03       4    7    1         0.8727173034E-02      0.1959239582E-01
          0                 4           1             4    7     1      -0.6249109915E-05       4    7    1        -0.3569419173E-03      0.8013117721E-03

    ------------------------------------------------
       NWT REQUIRED            4 OUTER ITERATIONS 
       AND A TOTAL OF          7 INNER ITERATIONS.
    ------------------------------------------------

 NO OUTPUT CONTROL FOR STRESS PERIOD   13   TIME STEP   25
 
 SOLVING FOR HEAD 
                                                   Max.-Head-Change                         Max.-Flux-Residual
  Residual-Control   Outer-Iter.   Inner-Iter.     Column Row Layer    Maximum-Head-Change  Column Row Layer    Maximum-Flux-Residual          L2-NORM 
          0                 1           2             4    7     1       0.2342845561E-01       4    7    1         0.1231894853E+01      0.2771767410E+01
          0                 2           2             4    7     1      -0.2278961799E-02       4    7    1        -0.1231902894E+00      0.2771750763E+00
          0                 3           2             4    7     1       0.1551887332E-03       4    7    1         0.8623316380E-02      0.1940205419E-01
          0                 4           1             4    7     1      -0.6175105548E-05       4    7    1        -0.3526941566E-03      0.7935276694E-03

    ------------------------------------------------
       NWT REQUIRED            4 OUTER ITERATIONS 
       AND A TOTAL OF          7 INNER ITERATIONS.
    ------------------------------------------------

 NO OUTPUT CONTROL FOR STRESS PERIOD   13   TIME STEP   26
 
 SOLVING FOR HEAD 
                                                   Max.-Head-Change                         Max.-Flux-Residual
  Residual-Control   Outer-Iter.   Inner-Iter.     Column Row Layer    Maximum-Head-Change  Column Row Layer    Maximum-Flux-Residual          L2-NORM 
          0                 1           2             4    7     1       0.2315225841E-01       4    7    1         0.1217300642E+01      0.2744982950E+01
          0                 2           2             4    7     1      -0.2252095050E-02       4    7    1        -0.1217308484E+00      0.2744966257E+00
          0                 3           2             4    7     1       0.1533592103E-03       4    7    1         0.8521155657E-02      0.1921455567E-01
          0                 4           1             4    7     1      -0.6102307258E-05       4    7    1        -0.3485157965E-03      0.7858663573E-03

    ------------------------------------------------
       NWT REQUIRED            4 OUTER ITERATIONS 
       AND A TOTAL OF          7 INNER ITERATIONS.
    ------------------------------------------------

 NO OUTPUT CONTROL FOR STRESS PERIOD   13   TIME STEP   27
 
 SOLVING FOR HEAD 
                                                   Max.-Head-Change                         Max.-Flux-Residual
  Residual-Control   Outer-Iter.   Inner-Iter.     Column Row Layer    Maximum-Head-Change  Column Row Layer    Maximum-Flux-Residual          L2-NORM 
          0                 1           2             4    7     1       0.2288054031E-01       4    7    1         0.1202943587E+01      0.2718599783E+01
          0                 2           2             4    7     1      -0.2225664001E-02       4    7    1        -0.1202951236E+00      0.2718583551E+00
          0                 3           2             4    7     1       0.1515593566E-03       4    7    1         0.8420655048E-02      0.1902988767E-01
          0                 4           1             4    7     1      -0.6030689371E-05       4    7    1        -0.3444053145E-03      0.7783151050E-03

    ------------------------------------------------
       NWT REQUIRED            4 OUTER ITERATIONS 
       AND A TOTAL OF          7 INNER ITERATIONS.
    ------------------------------------------------

 NO OUTPUT CONTROL FOR STRESS PERIOD   13   TIME STEP   28
 
 SOLVING FOR HEAD 
                                                   Max.-Head-Change                         Max.-Flux-Residual
  Residual-Control   Outer-Iter.   Inner-Iter.     Column Row Layer    Maximum-Head-Change  Column Row Layer    Maximum-Flux-Residual          L2-NORM 
          0                 1           2             4    7     1       0.2261347620E-01       4    7    1         0.1188833391E+01      0.2692617010E+01
          0                 2           2             4    7     1      -0.2199685667E-02       4    7    1        -0.1188840853E+00      0.2692601176E+00
          0                 3           2             4    7     1       0.1497903306E-03       4    7    1         0.8321882488E-02      0.1884801553E-01
          0                 4           1             4    7     1      -0.5960297938E-05       4    7    1        -0.3403654928E-03      0.7708514522E-03

    ------------------------------------------------
       NWT REQUIRED            4 OUTER ITERATIONS 
       AND A TOTAL OF          7 INNER ITERATIONS.
    ------------------------------------------------

 NO OUTPUT CONTROL FOR STRESS PERIOD   13   TIME STEP   29
 
 SOLVING FOR HEAD 
                                                   Max.-Head-Change                         Max.-Flux-Residual
  Residual-Control   Outer-Iter.   Inner-Iter.     Column Row Layer    Maximum-Head-Change  Column Row Layer    Maximum-Flux-Residual          L2-NORM 
          0                 1           2             4    7     1       0.2235082645E-01       4    7    1         0.1174957185E+01      0.2667020127E+01
          0                 2           2             4    7     1      -0.2174136738E-02       4    7    1        -0.1174964463E+00      0.2667003957E+00
          0                 3           2             4    7     1       0.1480505467E-03       4    7    1         0.8224747924E-02      0.1866882315E-01
          0                 4           1             4    7     1      -0.5891070676E-05       4    7    1        -0.3363927078E-03      0.7635513859E-03

    ------------------------------------------------
       NWT REQUIRED            4 OUTER ITERATIONS 
       AND A TOTAL OF          7 INNER ITERATIONS.
    ------------------------------------------------

 NO OUTPUT CONTROL FOR STRESS PERIOD   13   TIME STEP   30



 STREAM LISTING     PERIOD     13   STEP       30

 LAYER ROW COL. STREAM  RCH.  FLOW INTO     FLOW TO   FLOW OUT OF   OVRLND.     DIRECT     STREAM       STREAM     STREAM     STREAM   STREAMBED  STREAMBED
                SEG.NO.  NO.  STRM. RCH.    AQUIFER    STRM. RCH.    RUNOFF     PRECIP       ET          HEAD       DEPTH      WIDTH   CONDCTNC.   GRADIENT

   1    1    1     1     1    8.6249E+00  1.3546E-01   8.4895E+00  0.000E+00  0.000E+00  0.000E+00  1.09390E+03  8.549E-01  7.809E+00  3.514E-02  1.285E+00
   1    2    2     1     2    8.4895E+00  2.0809E-01   8.2814E+00  0.000E+00  0.000E+00  0.000E+00  1.08891E+03  8.492E-01  7.723E+00  5.406E-02  1.283E+00
   1    3    3     1     3    8.2814E+00  1.7583E-01   8.1056E+00  0.000E+00  0.000E+00  0.000E+00  1.08326E+03  8.427E-01  7.626E+00  4.576E-02  1.281E+00
   1    3    4     1     4    8.1056E+00  1.6058E-01   7.9450E+00  0.000E+00  0.000E+00  0.000E+00  1.07824E+03  8.369E-01  7.541E+00  4.185E-02  1.279E+00
   1    4    5     2     1    5.9450E+00  2.7323E-01   5.6717E+00  0.000E+00  0.000E+00  0.000E+00  1.07244E+03  5.030E-01  1.200E+01  7.800E-02  1.168E+00
   1    5    6     2     2    5.6717E+00  2.0942E-01   5.4623E+00  0.000E+00  0.000E+00  0.000E+00  1.06700E+03  4.904E-01  1.200E+01  6.000E-02  1.163E+00
   1    6    6     2     3    5.4623E+00  2.0875E-01   5.2536E+00  0.000E+00  0.000E+00  0.000E+00  1.06227E+03  4.792E-01  1.200E+01  6.000E-02  1.160E+00
   1    7    6     2     4    5.2536E+00  2.0808E-01   5.0455E+00  0.000E+00  0.000E+00  0.000E+00  1.05754E+03  4.680E-01  1.200E+01  6.000E-02  1.156E+00
   1    8    6     2     5    5.0455E+00  2.0739E-01   4.8381E+00  0.000E+00  0.000E+00  0.000E+00  1.05282E+03  4.565E-01  1.200E+01  6.000E-02  1.152E+00
   1    3    5     3     1    2.0000E+00  2.8252E-01   1.7175E+00  0.000E+00  0.000E+00  0.000E+00  1.07555E+03  1.909E+00  9.636E+00  7.227E-02  1.955E+00
   1    3    6     3     2    1.7175E+00  2.4905E-01   1.4684E+00  0.000E+00  0.000E+00  0.000E+00  1.07264E+03  1.727E+00  8.909E+00  6.682E-02  1.864E+00
   1    3    7     3     3    1.4684E+00  1.9718E-01   1.2712E+00  0.000E+00  0.000E+00  0.000E+00  1.06987E+03  1.555E+00  8.218E+00  5.547E-02  1.777E+00
   1    4    8     3     4    1.2712E+00  2.2567E-01   1.0456E+00  0.000E+00  0.000E+00  0.000E+00  1.06682E+03  1.364E+00  7.455E+00  6.709E-02  1.682E+00
   1    5    8     3     5    1.0456E+00  1.5790E-01   8.8768E-01  0.000E+00  0.000E+00  0.000E+00  1.06362E+03  1.164E+00  6.655E+00  4.991E-02  1.582E+00
   1    6    8     3     6    8.8768E-01  5.5980E-02   8.3170E-01  0.000E+00  0.000E+00  0.000E+00  1.06158E+03  1.036E+00  6.145E+00  1.844E-02  1.518E+00
   1    5   10     4     1    1.0000E+01  9.0919E-02   9.9091E+00  0.000E+00  0.000E+00  0.000E+00  1.07836E+03  6.368E-01  1.000E+01  2.500E-02  1.212E+00
   1    5    9     4     2    9.9091E+00  1.8158E-01   9.7275E+00  0.000E+00  0.000E+00  0.000E+00  1.07154E+03  6.315E-01  1.000E+01  5.000E-02  1.211E+00
   1    6    8     4     3    9.7275E+00  1.2689E-01   9.6006E+00  0.000E+00  0.000E+00  0.000E+00  1.06381E+03  6.256E-01  1.000E+01  3.500E-02  1.209E+00
   1    6    8     5     1    1.0432E+01  2.2686E-01   1.0205E+01  0.000E+00  0.000E+00  0.000E+00  1.05868E+03  6.790E-01  1.542E+01  6.166E-02  1.226E+00
   1    7    7     5     2    1.0205E+01  2.7894E-01   9.9265E+00  0.000E+00  0.000E+00  0.000E+00  1.05417E+03  6.732E-01  1.519E+01  7.594E-02  1.224E+00
   1    8    7     5     3    9.9265E+00  1.9221E-01   9.7343E+00  0.000E+00  0.000E+00  0.000E+00  1.04992E+03  6.676E-01  1.497E+01  5.241E-02  1.223E+00
   1    8    6     5     4    9.7343E+00  1.3577E-01   9.5985E+00  0.000E+00  0.000E+00  0.000E+00  1.04691E+03  6.637E-01  1.482E+01  3.706E-02  1.221E+00
   1    9    6     6     1    1.4437E+01  2.3244E-01   1.4204E+01  0.000E+00  0.000E+00  0.000E+00  1.04360E+03  8.741E-01  1.200E+01  6.000E-02  1.291E+00
   1   10    7     6     2    1.4204E+01  2.3193E-01   1.3972E+01  0.000E+00  0.000E+00  0.000E+00  1.03905E+03  8.655E-01  1.200E+01  6.000E-02  1.289E+00
   1   11    7     6     3    1.3972E+01  2.3142E-01   1.3741E+01  0.000E+00  0.000E+00  0.000E+00  1.03449E+03  8.570E-01  1.200E+01  6.000E-02  1.286E+00
   1   12    7     6     4    1.3741E+01  2.3090E-01   1.3510E+01  0.000E+00  0.000E+00  0.000E+00  1.02994E+03  8.484E-01  1.200E+01  6.000E-02  1.283E+00
   1   13    7     6     5    1.3510E+01 -1.6833E-02   1.3527E+01  0.000E+00  0.000E+00  0.000E+00  1.02675E+03  8.444E-01  1.200E+01  2.400E-01 -2.338E-02
   1   14    9     7     1    1.5000E+02  1.3684E+00   1.4863E+02  0.000E+00  0.000E+00  0.000E+00  1.03987E+03  2.288E+00  5.529E+01  5.593E-01  8.155E-01
   1   13    8     7     2    1.4863E+02  1.9168E+00   1.4671E+02  0.000E+00  0.000E+00  0.000E+00  1.03478E+03  2.279E+00  5.526E+01  6.148E-01  1.039E+00
   1   13    7     7     3    1.4671E+02  1.6000E+00   1.4511E+02  0.000E+00  0.000E+00  0.000E+00  1.02969E+03  2.270E+00  5.521E+01  5.584E-01  9.551E-01
   1   13    6     8     1    1.5864E+02  9.8990E-01   1.5765E+02  0.000E+00  0.000E+00  0.000E+00  1.02475E+03  2.873E+00  4.166E+01  4.246E-01  7.772E-01
   1   13    5     8     2    1.5765E+02  2.5448E-01   1.5740E+02  0.000E+00  0.000E+00  0.000E+00  1.01849E+03  2.869E+00  4.160E+01  4.239E-01  2.001E-01
   1   13    4     8     3    1.5740E+02 -2.1379E+00   1.5954E+02  0.000E+00  0.000E+00  0.000E+00  1.01225E+03  2.875E+00  4.169E+01  4.249E+00 -1.677E-01
   1   13    3     8     4    1.5954E+02 -3.5119E+00   1.6305E+02  0.000E+00  0.000E+00  0.000E+00  1.00602E+03  2.895E+00  4.197E+01  4.277E+00 -2.737E-01
   1   13    2     8     5    1.6305E+02 -2.5511E+00   1.6560E+02  0.000E+00  0.000E+00  0.000E+00  9.99790E+02  2.915E+00  4.227E+01  4.307E+00 -1.974E-01
   1   13    1     8     6    1.6560E+02 -1.9769E+00   1.6758E+02  0.000E+00  0.000E+00  0.000E+00  9.94805E+02  2.930E+00  4.248E+01  2.597E+00 -2.537E-01
   1    8    6     9     1    0.0000E+00  0.0000E+00   0.0000E+00  0.000E+00  0.000E+00  0.000E+00  1.07875E+03  0.000E+00  4.000E+00  0.000E+00  1.000E+00
   1    8    5     9     2    0.0000E+00  0.0000E+00   0.0000E+00  0.000E+00  0.000E+00  0.000E+00  1.07825E+03  0.000E+00  4.000E+00  0.000E+00  1.000E+00





UNSATURATED ZONE PACKAGE VOLUMETRIC BUDGET FOR  TIME STEP    30 STRESS PERIOD   13
  ------------------------------------------------------------------------------



     CUMULATIVE VOLUMES      L**3       RATES FOR THIS TIME STEP      L**3/T
     ------------------                 ------------------------

           IN:                                      IN:
           ---                                      ---
        INFILTRATION =   430709955.8621          INFILTRATION =           0.8475

          OUT:                                     OUT:
          ----                                     ----
              UZF ET =   430039523.0165                UZF ET =           0.7500
        UZF RECHARGE =       73224.0000          UZF RECHARGE =       0.0000E+00

            IN - OUT =      597208.8455              IN - OUT =       9.7500E-02

          STORAGE:                                 STORAGE:
          --------                                 --------
      STORAGE CHANGE =      597208.7153        STORAGE CHANGE =       9.7500E-02

 PERCENT DISCREPANCY IS DIFFERENCE BETWEEN IN-OUT MINUS CHANGE IN STORAGE
 DIVIDED BY THE AVERAGE OF IN AND OUT TIMES 100

 PERCENT DISCREPANCY =           0.00     PERCENT DISCREPANCY =           0.00






1
  VOLUMETRIC BUDGET FOR AGRICULTURAL FIELDS AT  END OF TIME STEP   30, STRESS PERIOD  13
  ------------------------------------------------------------------------------

     CUMULATIVE VOLUMES      L**3       RATES FOR THIS TIME STEP      L**3/T
     ------------------                 ------------------------

           IN:                                      IN:
           ---                                      ---
               AG WELLS  =   403889344.0000                 AG WELLS  =           0.0000
      DIVERSION SEGMENTS =           0.0000        DIVERSION SEGMENTS =           0.0000
       IRRIGATION PONDS  =           0.0000         IRRIGATION PONDS  =           0.0000
           GW IRRIGATION =           0.0000             GW IRRIGATION =           0.0000
           SW IRRIGATION =           0.0000             SW IRRIGATION =           0.0000
        SYSTEM LOSSES GW =           0.0000          SYSTEM LOSSES GW =           0.0000
        SYSTEM LOSSES SW =           0.0000          SYSTEM LOSSES SW =           0.0000

                TOTAL IN =   403889344.0000                  TOTAL IN =           0.0000

          OUT:                                     OUT:
          ----                                     ----
               AG WELLS  =           0.0000                 AG WELLS  =           0.0000
      DIVERSION SEGMENTS =           0.0000        DIVERSION SEGMENTS =           0.0000
       IRRIGATION PONDS  =           0.0000         IRRIGATION PONDS  =           0.0000
           GW IRRIGATION =   403889344.0000             GW IRRIGATION =           0.0000
           SW IRRIGATION =           0.0000             SW IRRIGATION =           0.0000
        SYSTEM LOSSES GW =           0.0000          SYSTEM LOSSES GW =           0.0000
        SYSTEM LOSSES SW =           0.0000          SYSTEM LOSSES SW =           0.0000

               TOTAL OUT =   403889344.0000                 TOTAL OUT =           0.0000

                IN - OUT =           0.0000                  IN - OUT =           0.0000

     PERCENT DISCREPANCY =           0.00         PERCENT DISCREPANCY =           0.00



1
  VOLUMETRIC BUDGET FOR ENTIRE MODEL AT END OF TIME STEP   30, STRESS PERIOD  13
  ------------------------------------------------------------------------------

     CUMULATIVE VOLUMES      L**3       RATES FOR THIS TIME STEP      L**3/T
     ------------------                 ------------------------

           IN:                                      IN:
           ---                                      ---
             STORAGE     =   521210880.0000               STORAGE     =           7.3223
       CONSTANT HEAD     =           0.0000         CONSTANT HEAD     =           0.0000
     HEAD DEP BOUNDS     =     9111538.0000       HEAD DEP BOUNDS     =           0.2880
      STREAM LEAKAGE     =   373118272.0000        STREAM LEAKAGE     =          11.2446
        UZF RECHARGE     =       73223.9531          UZF RECHARGE     =           0.0000
               GW ET     =           0.0000                 GW ET     =           0.0000
     SURFACE LEAKAGE     =           0.0000       SURFACE LEAKAGE     =           0.0000
           AG WELLS      =           0.0000             AG WELLS      =           0.0000

                TOTAL IN =   903513920.0000                  TOTAL IN =          18.8549

          OUT:                                     OUT:
          ----                                     ----
             STORAGE     =   165715952.0000               STORAGE     =           8.3727
       CONSTANT HEAD     =           0.0000         CONSTANT HEAD     =           0.0000
     HEAD DEP BOUNDS     =     9151282.0000       HEAD DEP BOUNDS     =           0.2875
      STREAM LEAKAGE     =   324759520.0000        STREAM LEAKAGE     =          10.1948
        UZF RECHARGE     =           0.0000          UZF RECHARGE     =           0.0000
               GW ET     =           0.0000                 GW ET     =           0.0000
     SURFACE LEAKAGE     =           0.0000       SURFACE LEAKAGE     =           0.0000
           AG WELLS      =   403889344.0000             AG WELLS      =           0.0000

               TOTAL OUT =   903516096.0000                 TOTAL OUT =          18.8549

                IN - OUT =       -2176.0000                  IN - OUT =       5.7220E-06

     PERCENT DISCREPANCY =          -0.00         PERCENT DISCREPANCY =           0.00






         TIME SUMMARY AT END OF TIME STEP   30 IN STRESS PERIOD   13
                    SECONDS     MINUTES      HOURS       DAYS        YEARS
                    -----------------------------------------------------------
   TIME STEP LENGTH  87667.      1461.1      24.352      1.0147     2.77799E-03
 STRESS PERIOD TIME 2.63000E+06  43833.      730.56      30.440     8.33397E-02
         TOTAL TIME 3.16463E+07 5.27439E+05  8790.6      366.28      1.0028    
1
1
                            STRESS PERIOD NO.   14, LENGTH =   2630000.    
                            -----------------------------------------------

                              NUMBER OF TIME STEPS =    30

                               MULTIPLIER FOR DELT =     1.000

                            INITIAL TIME STEP SIZE =   87666.66    

 REUSING NON-PARAMETER GHB CELLS FROM LAST STRESS PERIOD

      2 GHB CELLS

 REUSING STREAM SEGMENT DATA FROM LAST STRESS PERIOD



            AREAL INFILTRATION RATE
 READING ON UNIT   19 WITH FORMAT: (FREE)              

            1           2           3           4           5           6           7           8           9          10
 ........................................................................................................................
   1   1.0000E-10  2.0000E-10   0.000       0.000       0.000       0.000       0.000       0.000       0.000       0.000    
   2   2.0000E-10  1.0000E-10  2.0000E-10   0.000       0.000      8.0000E-10  8.0000E-10  5.0000E-10   0.000       0.000    
   3    0.000      5.0000E-10  1.0000E-10  1.0000E-10  8.0000E-10  8.0000E-10  5.0000E-10  5.0000E-10   0.000       0.000    
   4   8.0000E-10  5.0000E-10  1.0000E-10  1.0000E-10  1.0000E-10  1.0000E-10  1.0000E-10  1.0000E-10  2.0000E-10   0.000    
   5   8.0000E-10  5.0000E-10  1.0000E-10  1.0000E-10  1.0000E-10  1.0000E-10  1.0000E-10  1.0000E-10  1.0000E-10  1.0000E-10
   6   8.0000E-10  5.0000E-10  5.0000E-10  2.0000E-10  2.0000E-10  1.0000E-10  1.0000E-10  1.0000E-10  1.0000E-10  5.0000E-10
   7   8.0000E-10  5.0000E-10  5.0000E-10  2.0000E-10  2.0000E-10  1.0000E-10  1.0000E-10  2.0000E-10  2.0000E-10   0.000    
   8    0.000      5.0000E-10  5.0000E-10  2.0000E-10  2.0000E-10  1.0000E-10  1.0000E-10  2.0000E-10  5.0000E-10   0.000    
   9    0.000      5.0000E-10  5.0000E-10  2.0000E-10  2.0000E-10  1.0000E-10  1.0000E-10  2.0000E-10  5.0000E-10   0.000    
  10    0.000      5.0000E-10  5.0000E-10  2.0000E-10  2.0000E-10  1.0000E-10  1.0000E-10  2.0000E-10  5.0000E-10  8.0000E-10
  11    0.000      1.0000E-10  1.0000E-10  1.0000E-10  1.0000E-10  1.0000E-10  1.0000E-10  2.0000E-10  5.0000E-10   0.000    
  12   1.0000E-10  1.0000E-10  1.0000E-10  1.0000E-10  1.0000E-10  1.0000E-10  1.0000E-10  1.0000E-10  2.0000E-10   0.000    
  13   1.0000E-10  1.0000E-10  2.0000E-10  2.0000E-10  2.0000E-10  2.0000E-10  2.0000E-10  1.0000E-10  1.0000E-10   0.000    
  14    0.000      2.0000E-10  5.0000E-10  5.0000E-10  5.0000E-10  5.0000E-10  5.0000E-10  2.0000E-10  1.0000E-10   0.000    
  15    0.000       0.000      8.0000E-10  8.0000E-10  8.0000E-10  8.0000E-10   0.000       0.000       0.000       0.000    

                  ET RATE =  5.000000E-10

 USING ET EXTINCTION DEPTH FROM PREVIOUS STRESS PERIOD. CURRENT PERIOD IS:      14

 USING EXTINCTION WATER CONTENT FROM PREVIOUS STRESS PERIOD. CURRENT PERIOD IS:      14

 USING AIR ENTRY PRESSURE FROM PREVIOUS STRESS PERIOD. CURRENT PERIOD IS:      14

 USING ROOT PRESSURE HEAD FROM PREVIOUS STRESS PERIOD. CURRENT PERIOD IS:      14

 USING ROOT ACTIVITY FROM PREVIOUS STRESS PERIOD. CURRENT PERIOD IS:      14

 PROCESSING AG STRESS PERIOD DATA

 READING AG STRESS PERIOD DATA

 READING IRRIGATION SEGMENT

 READING IRRIGATION WELL

 READING SUPPLEMENTAL WELL

 NO IRRPOND OR REUSING IRRPOND DATA FROM LAST STRESS PERIOD

 END PROCESSING AG STRESS PERIOD DATA OPTIONS
 
 SOLVING FOR HEAD 
                                                   Max.-Head-Change                         Max.-Flux-Residual
  Residual-Control   Outer-Iter.   Inner-Iter.     Column Row Layer    Maximum-Head-Change  Column Row Layer    Maximum-Flux-Residual          L2-NORM 
          0                 1           2             4    7     1       0.2209248719E-01       4    7    1         0.1161309854E+01      0.2643435905E+01
          0                 2           2             4    7     1      -0.2149007110E-02       4    7    1        -0.1161316955E+00      0.2643396210E+00
          0                 3           2             4    7     1       0.1463393143E-03       4    7    1         0.8129215483E-02      0.1850337979E-01
          0                 4           1             4    7     1      -0.5822978802E-05       4    7    1        -0.3324854063E-03      0.7567814020E-03

    ------------------------------------------------
       NWT REQUIRED            4 OUTER ITERATIONS 
       AND A TOTAL OF          7 INNER ITERATIONS.
    ------------------------------------------------

 NO OUTPUT CONTROL FOR STRESS PERIOD   14   TIME STEP    1
 
 SOLVING FOR HEAD 
                                                   Max.-Head-Change                         Max.-Flux-Residual
  Residual-Control   Outer-Iter.   Inner-Iter.     Column Row Layer    Maximum-Head-Change  Column Row Layer    Maximum-Flux-Residual          L2-NORM 
          0                 1           2             4    7     1       0.2183835393E-01       4    7    1         0.1147886016E+01      0.2621595215E+01
          0                 2           2             4    7     1      -0.2124286618E-02       4    7    1        -0.1147892944E+00      0.2621501817E+00
          0                 3           2             4    7     1       0.1446559429E-03       4    7    1         0.8035247522E-02      0.1834961311E-01
          0                 4           1             4    7     1      -0.5755996068E-05       4    7    1        -0.3286421163E-03      0.7504255873E-03

    ------------------------------------------------
       NWT REQUIRED            4 OUTER ITERATIONS 
       AND A TOTAL OF          7 INNER ITERATIONS.
    ------------------------------------------------

 NO OUTPUT CONTROL FOR STRESS PERIOD   14   TIME STEP    2
 
 SOLVING FOR HEAD 
                                                   Max.-Head-Change                         Max.-Flux-Residual
  Residual-Control   Outer-Iter.   Inner-Iter.     Column Row Layer    Maximum-Head-Change  Column Row Layer    Maximum-Flux-Residual          L2-NORM 
          0                 1           2             4    7     1       0.2158833775E-01       4    7    1         0.1134680250E+01      0.2596974727E+01
          0                 2           2             4    7     1      -0.2099966612E-02       4    7    1        -0.1134687011E+00      0.2596888740E+00
          0                 3           2             4    7     1       0.1429998431E-03       4    7    1         0.7942806109E-02      0.1817740772E-01
          0                 4           1             4    7     1      -0.5690097950E-05       4    7    1        -0.3248612495E-03      0.7433896192E-03

    ------------------------------------------------
       NWT REQUIRED            4 OUTER ITERATIONS 
       AND A TOTAL OF          7 INNER ITERATIONS.
    ------------------------------------------------

 NO OUTPUT CONTROL FOR STRESS PERIOD   14   TIME STEP    3
 
 SOLVING FOR HEAD 
                                                   Max.-Head-Change                         Max.-Flux-Residual
  Residual-Control   Outer-Iter.   Inner-Iter.     Column Row Layer    Maximum-Head-Change  Column Row Layer    Maximum-Flux-Residual          L2-NORM 
          0                 1           2             4    7     1       0.2134248375E-01       4    7    1         0.1121695263E+01      0.2572721101E+01
          0                 2           2             4    7     1      -0.2076051481E-02       4    7    1        -0.1121701861E+00      0.2572642272E+00
          0                 3           2             4    7     1       0.1413713137E-03       4    7    1         0.7851910176E-02      0.1800774605E-01
          0                 4           1             4    7     1      -0.5625297344E-05       4    7    1        -0.3211436015E-03      0.7364699772E-03

    ------------------------------------------------
       NWT REQUIRED            4 OUTER ITERATIONS 
       AND A TOTAL OF          7 INNER ITERATIONS.
    ------------------------------------------------

 NO OUTPUT CONTROL FOR STRESS PERIOD   14   TIME STEP    4
 
 SOLVING FOR HEAD 
                                                   Max.-Head-Change                         Max.-Flux-Residual
  Residual-Control   Outer-Iter.   Inner-Iter.     Column Row Layer    Maximum-Head-Change  Column Row Layer    Maximum-Flux-Residual          L2-NORM 
          0                 1           2             4    7     1       0.2110056765E-01       4    7    1         0.1108918764E+01      0.2548834485E+01
          0                 2           2             4    7     1      -0.2052519406E-02       4    7    1        -0.1108925203E+00      0.2548681786E+00
          0                 3           2             4    7     1       0.1397688689E-03       4    7    1         0.7762473688E-02      0.1783895678E-01
          0                 4           1             4    7     1      -0.5561534499E-05       4    7    1        -0.3174856374E-03      0.7296481850E-03

    ------------------------------------------------
       NWT REQUIRED            4 OUTER ITERATIONS 
       AND A TOTAL OF          7 INNER ITERATIONS.
    ------------------------------------------------

 NO OUTPUT CONTROL FOR STRESS PERIOD   14   TIME STEP    5
 
 SOLVING FOR HEAD 
                                                   Max.-Head-Change                         Max.-Flux-Residual
  Residual-Control   Outer-Iter.   Inner-Iter.     Column Row Layer    Maximum-Head-Change  Column Row Layer    Maximum-Flux-Residual          L2-NORM 
          0                 1           2             4    7     1       0.2086250316E-01       4    7    1         0.1096346437E+01      0.2525296982E+01
          0                 2           2             4    7     1      -0.2029361994E-02       4    7    1        -0.1096352722E+00      0.2525229436E+00
          0                 3           2             4    7     1       0.1381919372E-03       4    7    1         0.7674466426E-02      0.1767595428E-01
          0                 4           1             4    7     1      -0.5498786618E-05       4    7    1        -0.3138861259E-03      0.7229199309E-03

    ------------------------------------------------
       NWT REQUIRED            4 OUTER ITERATIONS 
       AND A TOTAL OF          7 INNER ITERATIONS.
    ------------------------------------------------

 NO OUTPUT CONTROL FOR STRESS PERIOD   14   TIME STEP    6
 
 SOLVING FOR HEAD 
                                                   Max.-Head-Change                         Max.-Flux-Residual
  Residual-Control   Outer-Iter.   Inner-Iter.     Column Row Layer    Maximum-Head-Change  Column Row Layer    Maximum-Flux-Residual          L2-NORM 
          0                 1           2             4    7     1       0.2062834431E-01       4    7    1         0.1083981126E+01      0.2502107514E+01
          0                 2           2             4    7     1      -0.2006584501E-02       4    7    1        -0.1083987261E+00      0.2502043867E+00
          0                 3           2             4    7     1       0.1366408766E-03       4    7    1         0.7587908288E-02      0.1751363328E-01
          0                 4           1             4    7     1      -0.5437069244E-05       4    7    1        -0.3103459246E-03      0.7162853943E-03

    ------------------------------------------------
       NWT REQUIRED            4 OUTER ITERATIONS 
       AND A TOTAL OF          7 INNER ITERATIONS.
    ------------------------------------------------

 NO OUTPUT CONTROL FOR STRESS PERIOD   14   TIME STEP    7
 
 SOLVING FOR HEAD 
                                                   Max.-Head-Change                         Max.-Flux-Residual
  Residual-Control   Outer-Iter.   Inner-Iter.     Column Row Layer    Maximum-Head-Change  Column Row Layer    Maximum-Flux-Residual          L2-NORM 
          0                 1           2             4    7     1       0.2039787094E-01       4    7    1         0.1071811000E+01      0.2479253871E+01
          0                 2           2             4    7     1      -0.1984165511E-02       4    7    1        -0.1071816988E+00      0.2479195256E+00
          0                 3           2             4    7     1       0.1351142288E-03       4    7    1         0.7502716502E-02      0.1735383827E-01
          0                 4           1             4    7     1      -0.5376322166E-05       4    7    1        -0.3068615652E-03      0.7097727970E-03

    ------------------------------------------------
       NWT REQUIRED            4 OUTER ITERATIONS 
       AND A TOTAL OF          7 INNER ITERATIONS.
    ------------------------------------------------

 NO OUTPUT CONTROL FOR STRESS PERIOD   14   TIME STEP    8
 
 SOLVING FOR HEAD 
                                                   Max.-Head-Change                         Max.-Flux-Residual
  Residual-Control   Outer-Iter.   Inner-Iter.     Column Row Layer    Maximum-Head-Change  Column Row Layer    Maximum-Flux-Residual          L2-NORM 
          0                 1           2             4    7     1       0.2017114132E-01       4    7    1         0.1059839276E+01      0.2456733458E+01
          0                 2           2             4    7     1      -0.1962110690E-02       4    7    1        -0.1059845122E+00      0.2456678565E+00
          0                 3           2             4    7     1       0.1336123792E-03       4    7    1         0.7418913529E-02      0.1719623830E-01
          0                 4           1             4    7     1      -0.5316562191E-05       4    7    1        -0.3034340123E-03      0.7033002583E-03

    ------------------------------------------------
       NWT REQUIRED            4 OUTER ITERATIONS 
       AND A TOTAL OF          7 INNER ITERATIONS.
    ------------------------------------------------

 NO OUTPUT CONTROL FOR STRESS PERIOD   14   TIME STEP    9
 
 SOLVING FOR HEAD 
                                                   Max.-Head-Change                         Max.-Flux-Residual
  Residual-Control   Outer-Iter.   Inner-Iter.     Column Row Layer    Maximum-Head-Change  Column Row Layer    Maximum-Flux-Residual          L2-NORM 
          0                 1           2             4    7     1       0.1994793611E-01       4    7    1         0.1048054342E+01      0.2434538495E+01
          0                 2           2             4    7     1      -0.1940398705E-02       4    7    1        -0.1048060049E+00      0.2434487062E+00
          0                 3           2             4    7     1       0.1321338753E-03       4    7    1         0.7336418117E-02      0.1704091681E-01
          0                 4           1             4    7     1      -0.5257730836E-05       4    7    1        -0.3000599338E-03      0.6969387365E-03

    ------------------------------------------------
       NWT REQUIRED            4 OUTER ITERATIONS 
       AND A TOTAL OF          7 INNER ITERATIONS.
    ------------------------------------------------

 NO OUTPUT CONTROL FOR STRESS PERIOD   14   TIME STEP   10
 
 SOLVING FOR HEAD 
                                                   Max.-Head-Change                         Max.-Flux-Residual
  Residual-Control   Outer-Iter.   Inner-Iter.     Column Row Layer    Maximum-Head-Change  Column Row Layer    Maximum-Flux-Residual          L2-NORM 
          0                 1           2             4    7     1       0.1972831990E-01       4    7    1         0.1036459460E+01      0.2412658422E+01
          0                 2           2             4    7     1      -0.1919035837E-02       4    7    1        -0.1036465033E+00      0.2412609830E+00
          0                 3           2             4    7     1       0.1306791452E-03       4    7    1         0.7255253092E-02      0.1688777461E-01
          0                 4           1             4    7     1      -0.5199845945E-05       4    7    1        -0.2967402870E-03      0.6906700300E-03

    ------------------------------------------------
       NWT REQUIRED            4 OUTER ITERATIONS 
       AND A TOTAL OF          7 INNER ITERATIONS.
    ------------------------------------------------

 NO OUTPUT CONTROL FOR STRESS PERIOD   14   TIME STEP   11
 
 SOLVING FOR HEAD 
                                                   Max.-Head-Change                         Max.-Flux-Residual
  Residual-Control   Outer-Iter.   Inner-Iter.     Column Row Layer    Maximum-Head-Change  Column Row Layer    Maximum-Flux-Residual          L2-NORM 
          0                 1           2             4    7     1       0.1951221271E-01       4    7    1         0.1025050662E+01      0.2391089193E+01
          0                 2           2             4    7     1      -0.1898014306E-02       4    7    1        -0.1025056104E+00      0.2391043428E+00
          0                 3           2             4    7     1       0.1292476589E-03       4    7    1         0.7175390697E-02      0.1673684899E-01
          0                 4           1             4    7     1      -0.5142885414E-05       4    7    1        -0.2934738966E-03      0.6845074767E-03

    ------------------------------------------------
       NWT REQUIRED            4 OUTER ITERATIONS 
       AND A TOTAL OF          7 INNER ITERATIONS.
    ------------------------------------------------

 NO OUTPUT CONTROL FOR STRESS PERIOD   14   TIME STEP   12
 
 SOLVING FOR HEAD 
                                                   Max.-Head-Change                         Max.-Flux-Residual
  Residual-Control   Outer-Iter.   Inner-Iter.     Column Row Layer    Maximum-Head-Change  Column Row Layer    Maximum-Flux-Residual          L2-NORM 
          0                 1           2             4    7     1       0.1929953870E-01       4    7    1         0.1013823801E+01      0.2369828702E+01
          0                 2           2             4    7     1      -0.1877326735E-02       4    7    1        -0.1013829116E+00      0.2369785548E+00
          0                 3           2             4    7     1       0.1278389139E-03       4    7    1         0.7096801842E-02      0.1658808787E-01
          0                 4           1             4    7     1      -0.5086830476E-05       4    7    1        -0.2902596295E-03      0.6784455913E-03

    ------------------------------------------------
       NWT REQUIRED            4 OUTER ITERATIONS 
       AND A TOTAL OF          7 INNER ITERATIONS.
    ------------------------------------------------

 NO OUTPUT CONTROL FOR STRESS PERIOD   14   TIME STEP   13
 
 SOLVING FOR HEAD 
                                                   Max.-Head-Change                         Max.-Flux-Residual
  Residual-Control   Outer-Iter.   Inner-Iter.     Column Row Layer    Maximum-Head-Change  Column Row Layer    Maximum-Flux-Residual          L2-NORM 
          0                 1           2             4    7     1       0.1909009071E-01       4    7    1         0.1002767627E+01      0.2348859045E+01
          0                 2           2             4    7     1      -0.1856952973E-02       4    7    1        -0.1002772817E+00      0.2348818085E+00
          0                 3           2             4    7     1       0.1264515377E-03       4    7    1         0.7019407839E-02      0.1644130216E-01
          0                 4           1             4    7     1      -0.5031625410E-05       4    7    1        -0.2870941935E-03      0.6724211769E-03

    ------------------------------------------------
       NWT REQUIRED            4 OUTER ITERATIONS 
       AND A TOTAL OF          7 INNER ITERATIONS.
    ------------------------------------------------

 NO OUTPUT CONTROL FOR STRESS PERIOD   14   TIME STEP   14
 
 SOLVING FOR HEAD 
                                                   Max.-Head-Change                         Max.-Flux-Residual
  Residual-Control   Outer-Iter.   Inner-Iter.     Column Row Layer    Maximum-Head-Change  Column Row Layer    Maximum-Flux-Residual          L2-NORM 
          0                 1           2             4    7     1       0.1888406783E-01       4    7    1         0.9918933529E+00      0.2328185153E+01
          0                 2           2             4    7     1      -0.1836912736E-02       4    7    1        -0.9918984227E-01      0.2328388096E+00
          0                 3           2             4    7     1       0.1250868740E-03       4    7    1         0.6943287165E-02      0.1629835383E-01
          0                 4           1             4    7     1      -0.4977324326E-05       4    7    1        -0.2839808737E-03      0.6666085841E-03

    ------------------------------------------------
       NWT REQUIRED            4 OUTER ITERATIONS 
       AND A TOTAL OF          7 INNER ITERATIONS.
    ------------------------------------------------

 NO OUTPUT CONTROL FOR STRESS PERIOD   14   TIME STEP   15
 
 SOLVING FOR HEAD 
                                                   Max.-Head-Change                         Max.-Flux-Residual
  Residual-Control   Outer-Iter.   Inner-Iter.     Column Row Layer    Maximum-Head-Change  Column Row Layer    Maximum-Flux-Residual          L2-NORM 
          0                 1           2             4    7     1       0.1868112482E-01       4    7    1         0.9811820097E+00      0.2307778732E+01
          0                 2           2             4    7     1      -0.1817171391E-02       4    7    1        -0.9811869621E-01      0.2307741450E+00
          0                 3           1             4    7     1       0.1237425657E-03       4    7    1         0.6868307007E-02      0.1615381199E-01
          0                 4           1             4    7     1      -0.4923835582E-05       4    7    1        -0.2809141702E-03      0.6606560760E-03

    ------------------------------------------------
       NWT REQUIRED            4 OUTER ITERATIONS 
       AND A TOTAL OF          6 INNER ITERATIONS.
    ------------------------------------------------

 NO OUTPUT CONTROL FOR STRESS PERIOD   14   TIME STEP   16
 
 SOLVING FOR HEAD 
                                                   Max.-Head-Change                         Max.-Flux-Residual
  Residual-Control   Outer-Iter.   Inner-Iter.     Column Row Layer    Maximum-Head-Change  Column Row Layer    Maximum-Flux-Residual          L2-NORM 
          0                 1           2             4    7     1       0.1848133485E-01       4    7    1         0.9706377084E+00      0.2287631288E+01
          0                 2           2             4    7     1      -0.1797737106E-02       4    7    1        -0.9706425464E-01      0.2287595932E+00
          0                 3           1             4    7     1       0.1224191646E-03       4    7    1         0.6794496175E-02      0.1601283471E-01
          0                 4           1             4    7     1      -0.4871176218E-05       4    7    1        -0.2778953035E-03      0.6549077741E-03

    ------------------------------------------------
       NWT REQUIRED            4 OUTER ITERATIONS 
       AND A TOTAL OF          6 INNER ITERATIONS.
    ------------------------------------------------

 NO OUTPUT CONTROL FOR STRESS PERIOD   14   TIME STEP   17
 
 SOLVING FOR HEAD 
                                                   Max.-Head-Change                         Max.-Flux-Residual
  Residual-Control   Outer-Iter.   Inner-Iter.     Column Row Layer    Maximum-Head-Change  Column Row Layer    Maximum-Flux-Residual          L2-NORM 
          0                 1           2             4    7     1       0.1828462842E-01       4    7    1         0.9602568691E+00      0.2267757405E+01
          0                 2           2             4    7     1      -0.1778602769E-02       4    7    1        -0.9602615956E-01      0.2267723394E+00
          0                 3           1             4    7     1       0.1211161889E-03       4    7    1         0.6721829592E-02      0.1587372886E-01
          0                 4           1             4    7     1      -0.4819329769E-05       4    7    1        -0.2749232426E-03      0.6492107746E-03

    ------------------------------------------------
       NWT REQUIRED            4 OUTER ITERATIONS 
       AND A TOTAL OF          6 INNER ITERATIONS.
    ------------------------------------------------

 NO OUTPUT CONTROL FOR STRESS PERIOD   14   TIME STEP   18
 
 SOLVING FOR HEAD 
                                                   Max.-Head-Change                         Max.-Flux-Residual
  Residual-Control   Outer-Iter.   Inner-Iter.     Column Row Layer    Maximum-Head-Change  Column Row Layer    Maximum-Flux-Residual          L2-NORM 
          0                 1           2             4    7     1       0.1809107486E-01       4    7    1         0.9500432260E+00      0.2248157283E+01
          0                 2           2             4    7     1      -0.1759775124E-02       4    7    1        -0.9500478442E-01      0.2248124949E+00
          0                 3           1             4    7     1       0.1198340976E-03       4    7    1         0.6650333411E-02      0.1573656392E-01
          0                 4           1             4    7     1      -0.4768313967E-05       4    7    1        -0.2719990341E-03      0.6435980269E-03

    ------------------------------------------------
       NWT REQUIRED            4 OUTER ITERATIONS 
       AND A TOTAL OF          6 INNER ITERATIONS.
    ------------------------------------------------

 NO OUTPUT CONTROL FOR STRESS PERIOD   14   TIME STEP   19
 
 SOLVING FOR HEAD 
                                                   Max.-Head-Change                         Max.-Flux-Residual
  Residual-Control   Outer-Iter.   Inner-Iter.     Column Row Layer    Maximum-Head-Change  Column Row Layer    Maximum-Flux-Residual          L2-NORM 
          0                 1           2             4    7     1       0.1790033332E-01       4    7    1         0.9399784140E+00      0.2228825175E+01
          0                 2           2             4    7     1      -0.1741221017E-02       4    7    1        -0.9399829268E-01      0.2228793958E+00
          0                 3           1             4    7     1       0.1185706334E-03       4    7    1         0.6579879062E-02      0.1560124247E-01
          0                 4           1             4    7     1      -0.4718039470E-05       4    7    1        -0.2691174516E-03      0.6380571557E-03

    ------------------------------------------------
       NWT REQUIRED            4 OUTER ITERATIONS 
       AND A TOTAL OF          6 INNER ITERATIONS.
    ------------------------------------------------

 NO OUTPUT CONTROL FOR STRESS PERIOD   14   TIME STEP   20
 
 SOLVING FOR HEAD 
                                                   Max.-Head-Change                         Max.-Flux-Residual
  Residual-Control   Outer-Iter.   Inner-Iter.     Column Row Layer    Maximum-Head-Change  Column Row Layer    Maximum-Flux-Residual          L2-NORM 
          0                 1           2             4    7     1       0.1771261882E-01       4    7    1         0.9300740413E+00      0.2209755386E+01
          0                 2           2             4    7     1      -0.1722961363E-02       4    7    1        -0.9300784515E-01      0.2209725156E+00
          0                 3           1             4    7     1       0.1173272202E-03       4    7    1         0.6510547807E-02      0.1546777298E-01
          0                 4           1             4    7     1      -0.4668562924E-05       4    7    1        -0.2662818006E-03      0.6326138263E-03

    ------------------------------------------------
       NWT REQUIRED            4 OUTER ITERATIONS 
       AND A TOTAL OF          6 INNER ITERATIONS.
    ------------------------------------------------

 NO OUTPUT CONTROL FOR STRESS PERIOD   14   TIME STEP   21
 
 SOLVING FOR HEAD 
                                                   Max.-Head-Change                         Max.-Flux-Residual
  Residual-Control   Outer-Iter.   Inner-Iter.     Column Row Layer    Maximum-Head-Change  Column Row Layer    Maximum-Flux-Residual          L2-NORM 
          0                 1           2             4    7     1       0.1752772755E-01       4    7    1         0.9203192956E+00      0.2190939206E+01
          0                 2           2             4    7     1      -0.1704976336E-02       4    7    1        -0.9203236057E-01      0.2190910015E+00
          0                 3           1             4    7     1       0.1161025079E-03       4    7    1         0.6442263953E-02      0.1533607023E-01
          0                 4           1             4    7     1      -0.4619830447E-05       4    7    1        -0.2634889750E-03      0.6272331324E-03

    ------------------------------------------------
       NWT REQUIRED            4 OUTER ITERATIONS 
       AND A TOTAL OF          6 INNER ITERATIONS.
    ------------------------------------------------

 NO OUTPUT CONTROL FOR STRESS PERIOD   14   TIME STEP   22
 
 SOLVING FOR HEAD 
                                                   Max.-Head-Change                         Max.-Flux-Residual
  Residual-Control   Outer-Iter.   Inner-Iter.     Column Row Layer    Maximum-Head-Change  Column Row Layer    Maximum-Flux-Residual          L2-NORM 
          0                 1           2             4    7     1       0.1734560261E-01       4    7    1         0.9107109298E+00      0.2172377239E+01
          0                 2           2             4    7     1      -0.1687260401E-02       4    7    1        -0.9107151425E-01      0.2172348836E+00
          0                 3           1             4    7     1       0.1148961195E-03       4    7    1         0.6375004746E-02      0.1520614706E-01
          0                 4           1             4    7     1      -0.4571827303E-05       4    7    1        -0.2607380786E-03      0.6218932230E-03

    ------------------------------------------------
       NWT REQUIRED            4 OUTER ITERATIONS 
       AND A TOTAL OF          6 INNER ITERATIONS.
    ------------------------------------------------

 NO OUTPUT CONTROL FOR STRESS PERIOD   14   TIME STEP   23
 
 SOLVING FOR HEAD 
                                                   Max.-Head-Change                         Max.-Flux-Residual
  Residual-Control   Outer-Iter.   Inner-Iter.     Column Row Layer    Maximum-Head-Change  Column Row Layer    Maximum-Flux-Residual          L2-NORM 
          0                 1           2             4    7     1       0.1716618638E-01       4    7    1         0.9012459938E+00      0.2154064868E+01
          0                 2           2             4    7     1      -0.1669807954E-02       4    7    1        -0.9012501115E-01      0.2154037541E+00
          0                 3           1             4    7     1       0.1137076741E-03       4    7    1         0.6308749612E-02      0.1507800042E-01
          0                 4           1             4    7     1      -0.4524537605E-05       4    7    1        -0.2580282355E-03      0.6166767138E-03

    ------------------------------------------------
       NWT REQUIRED            4 OUTER ITERATIONS 
       AND A TOTAL OF          6 INNER ITERATIONS.
    ------------------------------------------------

 NO OUTPUT CONTROL FOR STRESS PERIOD   14   TIME STEP   24
 
 SOLVING FOR HEAD 
                                                   Max.-Head-Change                         Max.-Flux-Residual
  Residual-Control   Outer-Iter.   Inner-Iter.     Column Row Layer    Maximum-Head-Change  Column Row Layer    Maximum-Flux-Residual          L2-NORM 
          0                 1           2             4    7     1       0.1698955730E-01       4    7    1         0.8919288215E+00      0.2135995635E+01
          0                 2           2             4    7     1      -0.1652626624E-02       4    7    1        -0.8919328470E-01      0.2135968924E+00
          0                 3           1             4    7     1       0.1125376907E-03       4    7    1         0.6243528818E-02      0.1495153528E-01
          0                 4           1             4    7     1      -0.4477983112E-05       4    7    1        -0.2553607085E-03      0.6115127782E-03

    ------------------------------------------------
       NWT REQUIRED            4 OUTER ITERATIONS 
       AND A TOTAL OF          6 INNER ITERATIONS.
    ------------------------------------------------

 NO OUTPUT CONTROL FOR STRESS PERIOD   14   TIME STEP   25
 
 SOLVING FOR HEAD 
                                                   Max.-Head-Change                         Max.-Flux-Residual
  Residual-Control   Outer-Iter.   Inner-Iter.     Column Row Layer    Maximum-Head-Change  Column Row Layer    Maximum-Flux-Residual          L2-NORM 
          0                 1           2             4    7     1       0.1681551805E-01       4    7    1         0.8827488369E+00      0.2118165208E+01
          0                 2           2             4    7     1      -0.1635697217E-02       4    7    1        -0.8827527723E-01      0.2118139262E+00
          0                 3           1             4    7     1       0.1113848621E-03       4    7    1         0.6179268355E-02      0.1482672881E-01
          0                 4           1             4    7     1      -0.4432111095E-05       4    7    1        -0.2527324509E-03      0.6064169227E-03

    ------------------------------------------------
       NWT REQUIRED            4 OUTER ITERATIONS 
       AND A TOTAL OF          6 INNER ITERATIONS.
    ------------------------------------------------

 NO OUTPUT CONTROL FOR STRESS PERIOD   14   TIME STEP   26
 
 SOLVING FOR HEAD 
                                                   Max.-Head-Change                         Max.-Flux-Residual
  Residual-Control   Outer-Iter.   Inner-Iter.     Column Row Layer    Maximum-Head-Change  Column Row Layer    Maximum-Flux-Residual          L2-NORM 
          0                 1           2             4    7     1       0.1664401777E-01       4    7    1         0.8737031306E+00      0.2100565189E+01
          0                 2           2             4    7     1      -0.1619014786E-02       4    7    1        -0.8737069784E-01      0.2100539788E+00
          0                 3           1             4    7     1       0.1102488514E-03       4    7    1         0.6115947837E-02      0.1470351502E-01
          0                 4           1             4    7     1      -0.4386907970E-05       4    7    1        -0.2501426331E-03      0.6013468087E-03

    ------------------------------------------------
       NWT REQUIRED            4 OUTER ITERATIONS 
       AND A TOTAL OF          6 INNER ITERATIONS.
    ------------------------------------------------

 NO OUTPUT CONTROL FOR STRESS PERIOD   14   TIME STEP   27
 
 SOLVING FOR HEAD 
                                                   Max.-Head-Change                         Max.-Flux-Residual
  Residual-Control   Outer-Iter.   Inner-Iter.     Column Row Layer    Maximum-Head-Change  Column Row Layer    Maximum-Flux-Residual          L2-NORM 
          0                 1           2             4    7     1       0.1647513893E-01       4    7    1         0.8647963883E+00      0.2083200224E+01
          0                 2           2             4    7     1      -0.1602587354E-02       4    7    1        -0.8648001506E-01      0.2083175358E+00
          0                 3           1             4    7     1       0.1091302058E-03       4    7    1         0.6053600115E-02      0.1458197763E-01
          0                 4           1             4    7     1      -0.4342395955E-05       4    7    1        -0.2475926146E-03      0.5963738883E-03

    ------------------------------------------------
       NWT REQUIRED            4 OUTER ITERATIONS 
       AND A TOTAL OF          6 INNER ITERATIONS.
    ------------------------------------------------

 NO OUTPUT CONTROL FOR STRESS PERIOD   14   TIME STEP   28
 
 SOLVING FOR HEAD 
                                                   Max.-Head-Change                         Max.-Flux-Residual
  Residual-Control   Outer-Iter.   Inner-Iter.     Column Row Layer    Maximum-Head-Change  Column Row Layer    Maximum-Flux-Residual          L2-NORM 
          0                 1           2             4    7     1       0.1630868900E-01       4    7    1         0.8560182413E+00      0.2066057162E+01
          0                 2           2             4    7     1      -0.1586396190E-02       4    7    1        -0.8560219202E-01      0.2066033355E+00
          0                 3           1             4    7     1       0.1080276487E-03       4    7    1         0.5992152553E-02      0.1446201322E-01
          0                 4           1             4    7     1      -0.4298524165E-05       4    7    1        -0.2450794011E-03      0.5914952359E-03

    ------------------------------------------------
       NWT REQUIRED            4 OUTER ITERATIONS 
       AND A TOTAL OF          6 INNER ITERATIONS.
    ------------------------------------------------

 NO OUTPUT CONTROL FOR STRESS PERIOD   14   TIME STEP   29
 
 SOLVING FOR HEAD 
                                                   Max.-Head-Change                         Max.-Flux-Residual
  Residual-Control   Outer-Iter.   Inner-Iter.     Column Row Layer    Maximum-Head-Change  Column Row Layer    Maximum-Flux-Residual          L2-NORM 
          0                 1           2             4    7     1       0.1614475421E-01       4    7    1         0.8473733521E+00      0.2049137112E+01
          0                 2           2             4    7     1      -0.1570449686E-02       4    7    1        -0.8473769499E-01      0.2049113242E+00
          0                 3           1             4    7     1       0.1069417520E-03       4    7    1         0.5931637802E-02      0.1434355285E-01
          0                 4           1             4    7     1      -0.4255315395E-05       4    7    1        -0.2426043538E-03      0.5866387909E-03

    ------------------------------------------------
       NWT REQUIRED            4 OUTER ITERATIONS 
       AND A TOTAL OF          6 INNER ITERATIONS.
    ------------------------------------------------

 NO OUTPUT CONTROL FOR STRESS PERIOD   14   TIME STEP   30



 STREAM LISTING     PERIOD     14   STEP       30

 LAYER ROW COL. STREAM  RCH.  FLOW INTO     FLOW TO   FLOW OUT OF   OVRLND.     DIRECT     STREAM       STREAM     STREAM     STREAM   STREAMBED  STREAMBED
                SEG.NO.  NO.  STRM. RCH.    AQUIFER    STRM. RCH.    RUNOFF     PRECIP       ET          HEAD       DEPTH      WIDTH   CONDCTNC.   GRADIENT

   1    1    1     1     1    7.1251E+00  1.2038E-01   7.0047E+00  0.000E+00  0.000E+00  0.000E+00  1.09385E+03  8.024E-01  7.035E+00  3.166E-02  1.267E+00
   1    2    2     1     2    7.0047E+00  1.8492E-01   6.8198E+00  0.000E+00  0.000E+00  0.000E+00  1.08886E+03  7.976E-01  6.956E+00  4.869E-02  1.266E+00
   1    3    3     1     3    6.8198E+00  1.5635E-01   6.6635E+00  0.000E+00  0.000E+00  0.000E+00  1.08321E+03  7.929E-01  6.870E+00  4.122E-02  1.264E+00
   1    3    4     1     4    6.6635E+00  1.4286E-01   6.5206E+00  0.000E+00  0.000E+00  0.000E+00  1.07820E+03  7.886E-01  6.794E+00  3.771E-02  1.263E+00
   1    4    5     2     1    4.5206E+00  2.6715E-01   4.2534E+00  0.000E+00  0.000E+00  0.000E+00  1.07236E+03  4.251E-01  1.200E+01  7.800E-02  1.142E+00
   1    5    6     2     2    4.2534E+00  2.0467E-01   4.0488E+00  0.000E+00  0.000E+00  0.000E+00  1.06692E+03  4.112E-01  1.200E+01  6.000E-02  1.137E+00
   1    6    6     2     3    4.0488E+00  2.0394E-01   3.8448E+00  0.000E+00  0.000E+00  0.000E+00  1.06219E+03  3.989E-01  1.200E+01  6.000E-02  1.133E+00
   1    7    6     2     4    3.8448E+00  2.0319E-01   3.6417E+00  0.000E+00  0.000E+00  0.000E+00  1.05746E+03  3.865E-01  1.200E+01  6.000E-02  1.129E+00
   1    8    6     2     5    3.6417E+00  2.0242E-01   3.4392E+00  0.000E+00  0.000E+00  0.000E+00  1.05273E+03  3.737E-01  1.200E+01  6.000E-02  1.125E+00
   1    3    5     3     1    2.0000E+00  2.8252E-01   1.7175E+00  0.000E+00  0.000E+00  0.000E+00  1.07555E+03  1.909E+00  9.636E+00  7.227E-02  1.955E+00
   1    3    6     3     2    1.7175E+00  2.4905E-01   1.4684E+00  0.000E+00  0.000E+00  0.000E+00  1.07264E+03  1.727E+00  8.909E+00  6.682E-02  1.864E+00
   1    3    7     3     3    1.4684E+00  1.9718E-01   1.2712E+00  0.000E+00  0.000E+00  0.000E+00  1.06987E+03  1.555E+00  8.218E+00  5.547E-02  1.777E+00
   1    4    8     3     4    1.2712E+00  2.2567E-01   1.0456E+00  0.000E+00  0.000E+00  0.000E+00  1.06682E+03  1.364E+00  7.455E+00  6.709E-02  1.682E+00
   1    5    8     3     5    1.0456E+00  1.5790E-01   8.8768E-01  0.000E+00  0.000E+00  0.000E+00  1.06362E+03  1.164E+00  6.655E+00  4.991E-02  1.582E+00
   1    6    8     3     6    8.8768E-01  5.5980E-02   8.3170E-01  0.000E+00  0.000E+00  0.000E+00  1.06158E+03  1.036E+00  6.145E+00  1.844E-02  1.518E+00
   1    5   10     4     1    1.0000E+01  9.0919E-02   9.9091E+00  0.000E+00  0.000E+00  0.000E+00  1.07836E+03  6.368E-01  1.000E+01  2.500E-02  1.212E+00
   1    5    9     4     2    9.9091E+00  1.8158E-01   9.7275E+00  0.000E+00  0.000E+00  0.000E+00  1.07154E+03  6.315E-01  1.000E+01  5.000E-02  1.211E+00
   1    6    8     4     3    9.7275E+00  1.2689E-01   9.6006E+00  0.000E+00  0.000E+00  0.000E+00  1.06381E+03  6.256E-01  1.000E+01  3.500E-02  1.209E+00
   1    6    8     5     1    1.0432E+01  2.2686E-01   1.0205E+01  0.000E+00  0.000E+00  0.000E+00  1.05868E+03  6.790E-01  1.542E+01  6.166E-02  1.226E+00
   1    7    7     5     2    1.0205E+01  2.7894E-01   9.9265E+00  0.000E+00  0.000E+00  0.000E+00  1.05417E+03  6.732E-01  1.519E+01  7.594E-02  1.224E+00
   1    8    7     5     3    9.9265E+00  1.9221E-01   9.7343E+00  0.000E+00  0.000E+00  0.000E+00  1.04992E+03  6.676E-01  1.497E+01  5.241E-02  1.223E+00
   1    8    6     5     4    9.7343E+00  1.3577E-01   9.5985E+00  0.000E+00  0.000E+00  0.000E+00  1.04691E+03  6.637E-01  1.482E+01  3.706E-02  1.221E+00
   1    9    6     6     1    1.3038E+01  2.2931E-01   1.2808E+01  0.000E+00  0.000E+00  0.000E+00  1.04355E+03  8.218E-01  1.200E+01  6.000E-02  1.274E+00
   1   10    7     6     2    1.2808E+01  2.2878E-01   1.2580E+01  0.000E+00  0.000E+00  0.000E+00  1.03899E+03  8.131E-01  1.200E+01  6.000E-02  1.271E+00
   1   11    7     6     3    1.2580E+01  2.2826E-01   1.2351E+01  0.000E+00  0.000E+00  0.000E+00  1.03444E+03  8.043E-01  1.200E+01  6.000E-02  1.268E+00
   1   12    7     6     4    1.2351E+01  2.2772E-01   1.2124E+01  0.000E+00  0.000E+00  0.000E+00  1.02989E+03  7.954E-01  1.200E+01  6.000E-02  1.265E+00
   1   13    7     6     5    1.2124E+01 -2.2753E-02   1.2146E+01  0.000E+00  0.000E+00  0.000E+00  1.02670E+03  7.914E-01  1.200E+01  2.400E-01 -3.160E-02
   1   14    9     7     1    1.5000E+02  1.3686E+00   1.4863E+02  0.000E+00  0.000E+00  0.000E+00  1.03987E+03  2.288E+00  5.529E+01  5.593E-01  8.157E-01
   1   13    8     7     2    1.4863E+02  1.9221E+00   1.4671E+02  0.000E+00  0.000E+00  0.000E+00  1.03478E+03  2.279E+00  5.525E+01  6.148E-01  1.042E+00
   1   13    7     7     3    1.4671E+02  1.6157E+00   1.4509E+02  0.000E+00  0.000E+00  0.000E+00  1.02969E+03  2.269E+00  5.521E+01  5.584E-01  9.645E-01
   1   13    6     8     1    1.5724E+02  9.9872E-01   1.5624E+02  0.000E+00  0.000E+00  0.000E+00  1.02474E+03  2.864E+00  4.152E+01  4.231E-01  7.868E-01
   1   13    5     8     2    1.5624E+02  2.6518E-01   1.5598E+02  0.000E+00  0.000E+00  0.000E+00  1.01848E+03  2.859E+00  4.146E+01  4.225E-01  2.092E-01
   1   13    4     8     3    1.5598E+02 -2.0979E+00   1.5807E+02  0.000E+00  0.000E+00  0.000E+00  1.01224E+03  2.866E+00  4.155E+01  4.234E+00 -1.652E-01
   1   13    3     8     4    1.5807E+02 -3.4911E+00   1.6157E+02  0.000E+00  0.000E+00  0.000E+00  1.00601E+03  2.885E+00  4.183E+01  4.262E+00 -2.730E-01
   1   13    2     8     5    1.6157E+02 -2.5483E+00   1.6411E+02  0.000E+00  0.000E+00  0.000E+00  9.99780E+02  2.905E+00  4.212E+01  4.292E+00 -1.979E-01
   1   13    1     8     6    1.6411E+02 -1.9764E+00   1.6609E+02  0.000E+00  0.000E+00  0.000E+00  9.94795E+02  2.920E+00  4.234E+01  2.589E+00 -2.545E-01
   1    8    6     9     1    0.0000E+00  0.0000E+00   0.0000E+00  0.000E+00  0.000E+00  0.000E+00  1.07875E+03  0.000E+00  4.000E+00  0.000E+00  1.000E+00
   1    8    5     9     2    0.0000E+00  0.0000E+00   0.0000E+00  0.000E+00  0.000E+00  0.000E+00  1.07825E+03  0.000E+00  4.000E+00  0.000E+00  1.000E+00





UNSATURATED ZONE PACKAGE VOLUMETRIC BUDGET FOR  TIME STEP    30 STRESS PERIOD   14
  ------------------------------------------------------------------------------



     CUMULATIVE VOLUMES      L**3       RATES FOR THIS TIME STEP      L**3/T
     ------------------                 ------------------------

           IN:                                      IN:
           ---                                      ---
        INFILTRATION =   432938880.7348          INFILTRATION =           0.8475

          OUT:                                     OUT:
          ----                                     ----
              UZF ET =   432012022.8872                UZF ET =           0.7500
        UZF RECHARGE =       73224.0000          UZF RECHARGE =       0.0000E+00

            IN - OUT =      853633.8476              IN - OUT =       9.7500E-02

          STORAGE:                                 STORAGE:
          --------                                 --------
      STORAGE CHANGE =      853633.7392        STORAGE CHANGE =       9.7500E-02

 PERCENT DISCREPANCY IS DIFFERENCE BETWEEN IN-OUT MINUS CHANGE IN STORAGE
 DIVIDED BY THE AVERAGE OF IN AND OUT TIMES 100

 PERCENT DISCREPANCY =           0.00     PERCENT DISCREPANCY =           0.00






1
  VOLUMETRIC BUDGET FOR AGRICULTURAL FIELDS AT  END OF TIME STEP   30, STRESS PERIOD  14
  ------------------------------------------------------------------------------

     CUMULATIVE VOLUMES      L**3       RATES FOR THIS TIME STEP      L**3/T
     ------------------                 ------------------------

           IN:                                      IN:
           ---                                      ---
               AG WELLS  =   403889344.0000                 AG WELLS  =           0.0000
      DIVERSION SEGMENTS =           0.0000        DIVERSION SEGMENTS =           0.0000
       IRRIGATION PONDS  =           0.0000         IRRIGATION PONDS  =           0.0000
           GW IRRIGATION =           0.0000             GW IRRIGATION =           0.0000
           SW IRRIGATION =           0.0000             SW IRRIGATION =           0.0000
        SYSTEM LOSSES GW =           0.0000          SYSTEM LOSSES GW =           0.0000
        SYSTEM LOSSES SW =           0.0000          SYSTEM LOSSES SW =           0.0000

                TOTAL IN =   403889344.0000                  TOTAL IN =           0.0000

          OUT:                                     OUT:
          ----                                     ----
               AG WELLS  =           0.0000                 AG WELLS  =           0.0000
      DIVERSION SEGMENTS =           0.0000        DIVERSION SEGMENTS =           0.0000
       IRRIGATION PONDS  =           0.0000         IRRIGATION PONDS  =           0.0000
           GW IRRIGATION =   403889344.0000             GW IRRIGATION =           0.0000
           SW IRRIGATION =           0.0000             SW IRRIGATION =           0.0000
        SYSTEM LOSSES GW =           0.0000          SYSTEM LOSSES GW =           0.0000
        SYSTEM LOSSES SW =           0.0000          SYSTEM LOSSES SW =           0.0000

               TOTAL OUT =   403889344.0000                 TOTAL OUT =           0.0000

                IN - OUT =           0.0000                  IN - OUT =           0.0000

     PERCENT DISCREPANCY =           0.00         PERCENT DISCREPANCY =           0.00



1
  VOLUMETRIC BUDGET FOR ENTIRE MODEL AT END OF TIME STEP   30, STRESS PERIOD  14
  ------------------------------------------------------------------------------

     CUMULATIVE VOLUMES      L**3       RATES FOR THIS TIME STEP      L**3/T
     ------------------                 ------------------------

           IN:                                      IN:
           ---                                      ---
             STORAGE     =   538557760.0000               STORAGE     =           5.8453
       CONSTANT HEAD     =           0.0000         CONSTANT HEAD     =           0.0000
     HEAD DEP BOUNDS     =     9868935.0000       HEAD DEP BOUNDS     =           0.2880
      STREAM LEAKAGE     =   402440768.0000        STREAM LEAKAGE     =          11.1718
        UZF RECHARGE     =       73223.9531          UZF RECHARGE     =           0.0000
               GW ET     =           0.0000                 GW ET     =           0.0000
     SURFACE LEAKAGE     =           0.0000       SURFACE LEAKAGE     =           0.0000
           AG WELLS      =           0.0000             AG WELLS      =           0.0000

                TOTAL IN =   950940672.0000                  TOTAL IN =          17.3051

          OUT:                                     OUT:
          ----                                     ----
             STORAGE     =   185550096.0000               STORAGE     =           6.8814
       CONSTANT HEAD     =           0.0000         CONSTANT HEAD     =           0.0000
     HEAD DEP BOUNDS     =     9906973.0000       HEAD DEP BOUNDS     =           0.2872
      STREAM LEAKAGE     =   351596512.0000        STREAM LEAKAGE     =          10.1364
        UZF RECHARGE     =           0.0000          UZF RECHARGE     =           0.0000
               GW ET     =           0.0000                 GW ET     =           0.0000
     SURFACE LEAKAGE     =           0.0000       SURFACE LEAKAGE     =           0.0000
           AG WELLS      =   403889344.0000             AG WELLS      =           0.0000

               TOTAL OUT =   950942912.0000                 TOTAL OUT =          17.3050

                IN - OUT =       -2240.0000                  IN - OUT =       7.6294E-06

     PERCENT DISCREPANCY =          -0.00         PERCENT DISCREPANCY =           0.00






         TIME SUMMARY AT END OF TIME STEP   30 IN STRESS PERIOD   14
                    SECONDS     MINUTES      HOURS       DAYS        YEARS
                    -----------------------------------------------------------
   TIME STEP LENGTH  87667.      1461.1      24.352      1.0147     2.77799E-03
 STRESS PERIOD TIME 2.63000E+06  43833.      730.56      30.440     8.33397E-02
         TOTAL TIME 3.42763E+07 5.71272E+05  9521.2      396.72      1.0862    
1
1
                            STRESS PERIOD NO.   15, LENGTH =   2630000.    
                            -----------------------------------------------

                              NUMBER OF TIME STEPS =    30

                               MULTIPLIER FOR DELT =     1.000

                            INITIAL TIME STEP SIZE =   87666.66    

 REUSING NON-PARAMETER GHB CELLS FROM LAST STRESS PERIOD

      2 GHB CELLS

 REUSING STREAM SEGMENT DATA FROM LAST STRESS PERIOD



            AREAL INFILTRATION RATE
 READING ON UNIT   19 WITH FORMAT: (FREE)              

            1           2           3           4           5           6           7           8           9          10
 ........................................................................................................................
   1   1.0000E-10  2.0000E-10   0.000       0.000       0.000       0.000       0.000       0.000       0.000       0.000    
   2   2.0000E-10  1.0000E-10  2.0000E-10   0.000       0.000      8.0000E-10  8.0000E-10  5.0000E-10   0.000       0.000    
   3    0.000      5.0000E-10  1.0000E-10  1.0000E-10  8.0000E-10  8.0000E-10  5.0000E-10  5.0000E-10   0.000       0.000    
   4   8.0000E-10  5.0000E-10  1.0000E-10  1.0000E-10  1.0000E-10  1.0000E-10  1.0000E-10  1.0000E-10  2.0000E-10   0.000    
   5   8.0000E-10  5.0000E-10  1.0000E-10  1.0000E-10  1.0000E-10  1.0000E-10  1.0000E-10  1.0000E-10  1.0000E-10  1.0000E-10
   6   8.0000E-10  5.0000E-10  5.0000E-10  2.0000E-10  2.0000E-10  1.0000E-10  1.0000E-10  1.0000E-10  1.0000E-10  5.0000E-10
   7   8.0000E-10  5.0000E-10  5.0000E-10  2.0000E-10  2.0000E-10  1.0000E-10  1.0000E-10  2.0000E-10  2.0000E-10   0.000    
   8    0.000      5.0000E-10  5.0000E-10  2.0000E-10  2.0000E-10  1.0000E-10  1.0000E-10  2.0000E-10  5.0000E-10   0.000    
   9    0.000      5.0000E-10  5.0000E-10  2.0000E-10  2.0000E-10  1.0000E-10  1.0000E-10  2.0000E-10  5.0000E-10   0.000    
  10    0.000      5.0000E-10  5.0000E-10  2.0000E-10  2.0000E-10  1.0000E-10  1.0000E-10  2.0000E-10  5.0000E-10  8.0000E-10
  11    0.000      1.0000E-10  1.0000E-10  1.0000E-10  1.0000E-10  1.0000E-10  1.0000E-10  2.0000E-10  5.0000E-10   0.000    
  12   1.0000E-10  1.0000E-10  1.0000E-10  1.0000E-10  1.0000E-10  1.0000E-10  1.0000E-10  1.0000E-10  2.0000E-10   0.000    
  13   1.0000E-10  1.0000E-10  2.0000E-10  2.0000E-10  2.0000E-10  2.0000E-10  2.0000E-10  1.0000E-10  1.0000E-10   0.000    
  14    0.000      2.0000E-10  5.0000E-10  5.0000E-10  5.0000E-10  5.0000E-10  5.0000E-10  2.0000E-10  1.0000E-10   0.000    
  15    0.000       0.000      8.0000E-10  8.0000E-10  8.0000E-10  8.0000E-10   0.000       0.000       0.000       0.000    

                  ET RATE =  5.000000E-10

 USING ET EXTINCTION DEPTH FROM PREVIOUS STRESS PERIOD. CURRENT PERIOD IS:      15

 USING EXTINCTION WATER CONTENT FROM PREVIOUS STRESS PERIOD. CURRENT PERIOD IS:      15

 USING AIR ENTRY PRESSURE FROM PREVIOUS STRESS PERIOD. CURRENT PERIOD IS:      15

 USING ROOT PRESSURE HEAD FROM PREVIOUS STRESS PERIOD. CURRENT PERIOD IS:      15

 USING ROOT ACTIVITY FROM PREVIOUS STRESS PERIOD. CURRENT PERIOD IS:      15

 PROCESSING AG STRESS PERIOD DATA

 READING AG STRESS PERIOD DATA

 READING IRRIGATION SEGMENT

 READING IRRIGATION WELL

 READING SUPPLEMENTAL WELL

 NO IRRPOND OR REUSING IRRPOND DATA FROM LAST STRESS PERIOD

 END PROCESSING AG STRESS PERIOD DATA OPTIONS
 
 SOLVING FOR HEAD 
                                                   Max.-Head-Change                         Max.-Flux-Residual
  Residual-Control   Outer-Iter.   Inner-Iter.     Column Row Layer    Maximum-Head-Change  Column Row Layer    Maximum-Flux-Residual          L2-NORM 
          0                 1           2             4    7     1       0.1598328347E-01       4    7    1         0.8388588696E+00      0.2032441148E+01
          0                 2           2             4    7     1      -0.1554742869E-02       4    7    1        -0.8388623884E-01      0.2032417911E+00
          0                 3           1             4    7     1       0.1058721769E-03       4    7    1         0.5872035930E-02      0.1422670701E-01
          0                 4           1             4    7     1      -0.4212755830E-05       4    7    1        -0.2401666122E-03      0.5818754451E-03

    ------------------------------------------------
       NWT REQUIRED            4 OUTER ITERATIONS 
       AND A TOTAL OF          6 INNER ITERATIONS.
    ------------------------------------------------

 NO OUTPUT CONTROL FOR STRESS PERIOD   15   TIME STEP    1
 
 SOLVING FOR HEAD 
                                                   Max.-Head-Change                         Max.-Flux-Residual
  Residual-Control   Outer-Iter.   Inner-Iter.     Column Row Layer    Maximum-Head-Change  Column Row Layer    Maximum-Flux-Residual          L2-NORM 
          0                 1           2             4    7     1       0.1582409115E-01       4    7    1         0.8304648211E+00      0.2014845780E+01
          0                 2           2             4    7     1      -0.1539295351E-02       4    7    1        -0.8304682628E-01      0.2015317950E+00
          0                 3           1             4    7     1       0.1048202595E-03       4    7    1         0.5813277100E-02      0.1410713258E-01
          0                 4           1             4    7     1      -0.4170899003E-05       4    7    1        -0.2377633814E-03      0.5769963702E-03

    ------------------------------------------------
       NWT REQUIRED            4 OUTER ITERATIONS 
       AND A TOTAL OF          6 INNER ITERATIONS.
    ------------------------------------------------

 NO OUTPUT CONTROL FOR STRESS PERIOD   15   TIME STEP    2
 
 SOLVING FOR HEAD 
                                                   Max.-Head-Change                         Max.-Flux-Residual
  Residual-Control   Outer-Iter.   Inner-Iter.     Column Row Layer    Maximum-Head-Change  Column Row Layer    Maximum-Flux-Residual          L2-NORM 
          0                 1           2             4    7     1       0.1566714474E-01       4    7    1         0.8221942200E+00      0.1997826817E+01
          0                 2           2             4    7     1      -0.1523990975E-02       4    7    1        -0.8221975886E-01      0.1997825119E+00
          0                 3           1             4    7     1       0.1037780891E-03       4    7    1         0.5755382420E-02      0.1398474498E-01
          0                 4           1             4    7     1      -0.4129430042E-05       4    7    1        -0.2353954851E-03      0.5719739165E-03

    ------------------------------------------------
       NWT REQUIRED            4 OUTER ITERATIONS 
       AND A TOTAL OF          6 INNER ITERATIONS.
    ------------------------------------------------

 NO OUTPUT CONTROL FOR STRESS PERIOD   15   TIME STEP    3
 
 SOLVING FOR HEAD 
                                                   Max.-Head-Change                         Max.-Flux-Residual
  Residual-Control   Outer-Iter.   Inner-Iter.     Column Row Layer    Maximum-Head-Change  Column Row Layer    Maximum-Flux-Residual          L2-NORM 
          0                 1           2             4    7     1       0.1551238154E-01       4    7    1         0.8140367576E+00      0.1981719210E+01
          0                 2           2             4    7     1      -0.1508936628E-02       4    7    1        -0.8140400538E-01      0.1981716767E+00
          0                 3           1             4    7     1       0.1027529446E-03       4    7    1         0.5698279707E-02      0.1387198969E-01
          0                 4           1             4    7     1      -0.4088638146E-05       4    7    1        -0.2330599705E-03      0.5673823867E-03

    ------------------------------------------------
       NWT REQUIRED            4 OUTER ITERATIONS 
       AND A TOTAL OF          6 INNER ITERATIONS.
    ------------------------------------------------

 NO OUTPUT CONTROL FOR STRESS PERIOD   15   TIME STEP    4
 
 SOLVING FOR HEAD 
                                                   Max.-Head-Change                         Max.-Flux-Residual
  Residual-Control   Outer-Iter.   Inner-Iter.     Column Row Layer    Maximum-Head-Change  Column Row Layer    Maximum-Flux-Residual          L2-NORM 
          0                 1           2             4    7     1       0.1535986108E-01       4    7    1         0.8059978083E+00      0.1965824006E+01
          0                 2           2             4    7     1      -0.1494100441E-02       4    7    1        -0.8060010338E-01      0.1965820399E+00
          0                 3           1             4    7     1       0.1017426563E-03       4    7    1         0.5642006609E-02      0.1376068426E-01
          0                 4           1             4    7     1      -0.4048438235E-05       4    7    1        -0.2307584009E-03      0.5628152470E-03

    ------------------------------------------------
       NWT REQUIRED            4 OUTER ITERATIONS 
       AND A TOTAL OF          6 INNER ITERATIONS.
    ------------------------------------------------

 NO OUTPUT CONTROL FOR STRESS PERIOD   15   TIME STEP    5
 
 SOLVING FOR HEAD 
                                                   Max.-Head-Change                         Max.-Flux-Residual
  Residual-Control   Outer-Iter.   Inner-Iter.     Column Row Layer    Maximum-Head-Change  Column Row Layer    Maximum-Flux-Residual          L2-NORM 
          0                 1           2             4    7     1       0.1520953658E-01       4    7    1         0.7980751413E+00      0.1950128716E+01
          0                 2           2             4    7     1      -0.1479477864E-02       4    7    1        -0.7980782981E-01      0.1950124956E+00
          0                 3           1             4    7     1       0.1007469144E-03       4    7    1         0.5586547519E-02      0.1365083248E-01
          0                 4           1             4    7     1      -0.4008816726E-05       4    7    1        -0.2284901257E-03      0.5583236538E-03

    ------------------------------------------------
       NWT REQUIRED            4 OUTER ITERATIONS 
       AND A TOTAL OF          6 INNER ITERATIONS.
    ------------------------------------------------

 NO OUTPUT CONTROL FOR STRESS PERIOD   15   TIME STEP    6
 
 SOLVING FOR HEAD 
                                                   Max.-Head-Change                         Max.-Flux-Residual
  Residual-Control   Outer-Iter.   Inner-Iter.     Column Row Layer    Maximum-Head-Change  Column Row Layer    Maximum-Flux-Residual          L2-NORM 
          0                 1           2             4    7     1       0.1506123484E-01       4    7    1         0.7902590069E+00      0.1934637117E+01
          0                 2           2             4    7     1      -0.1465052048E-02       4    7    1        -0.7902620961E-01      0.1934632596E+00
          0                 3           1             4    7     1       0.9976457076E-04       4    7    1         0.5531834134E-02      0.1354237161E-01

    ------------------------------------------------
       NWT REQUIRED            3 OUTER ITERATIONS 
       AND A TOTAL OF          5 INNER ITERATIONS.
    ------------------------------------------------

 NO OUTPUT CONTROL FOR STRESS PERIOD   15   TIME STEP    7
 
 SOLVING FOR HEAD 
                                                   Max.-Head-Change                         Max.-Flux-Residual
  Residual-Control   Outer-Iter.   Inner-Iter.     Column Row Layer    Maximum-Head-Change  Column Row Layer    Maximum-Flux-Residual          L2-NORM 
          0                 1           2             4    7     1       0.1491513844E-01       4    7    1         0.7825596901E+00      0.1919338842E+01
          0                 2           2             4    7     1      -0.1450840755E-02       4    7    1        -0.7825627138E-01      0.1919333650E+00
          0                 3           1             4    7     1       0.9879683505E-04       4    7    1         0.5477938499E-02      0.1343526947E-01

    ------------------------------------------------
       NWT REQUIRED            3 OUTER ITERATIONS 
       AND A TOTAL OF          5 INNER ITERATIONS.
    ------------------------------------------------

 NO OUTPUT CONTROL FOR STRESS PERIOD   15   TIME STEP    8
 
 SOLVING FOR HEAD 
                                                   Max.-Head-Change                         Max.-Flux-Residual
  Residual-Control   Outer-Iter.   Inner-Iter.     Column Row Layer    Maximum-Head-Change  Column Row Layer    Maximum-Flux-Residual          L2-NORM 
          0                 1           2             4    7     1       0.1477098373E-01       4    7    1         0.7749628126E+00      0.1904231946E+01
          0                 2           2             4    7     1      -0.1436818337E-02       4    7    1        -0.7749657723E-01      0.1904226161E+00
          0                 3           1             4    7     1       0.9784196135E-04       4    7    1         0.5424759943E-02      0.1332952445E-01

    ------------------------------------------------
       NWT REQUIRED            3 OUTER ITERATIONS 
       AND A TOTAL OF          5 INNER ITERATIONS.
    ------------------------------------------------

 NO OUTPUT CONTROL FOR STRESS PERIOD   15   TIME STEP    9
 
 SOLVING FOR HEAD 
                                                   Max.-Head-Change                         Max.-Flux-Residual
  Residual-Control   Outer-Iter.   Inner-Iter.     Column Row Layer    Maximum-Head-Change  Column Row Layer    Maximum-Flux-Residual          L2-NORM 
          0                 1           2             4    7     1       0.1462887329E-01       4    7    1         0.7674739326E+00      0.1889317969E+01
          0                 2           2             4    7     1      -0.1422994773E-02       4    7    1        -0.7674768296E-01      0.1889311772E+00
          0                 3           1             4    7     1       0.9690062915E-04       4    7    1         0.5372337391E-02      0.1322511820E-01

    ------------------------------------------------
       NWT REQUIRED            3 OUTER ITERATIONS 
       AND A TOTAL OF          5 INNER ITERATIONS.
    ------------------------------------------------

 NO OUTPUT CONTROL FOR STRESS PERIOD   15   TIME STEP   10
 
 SOLVING FOR HEAD 
                                                   Max.-Head-Change                         Max.-Flux-Residual
  Residual-Control   Outer-Iter.   Inner-Iter.     Column Row Layer    Maximum-Head-Change  Column Row Layer    Maximum-Flux-Residual          L2-NORM 
          0                 1           2             4    7     1       0.1448876895E-01       4    7    1         0.7600910449E+00      0.1874591257E+01
          0                 2           2             4    7     1      -0.1409366351E-02       4    7    1        -0.7600938808E-01      0.1874580152E+00
          0                 3           1             4    7     1       0.9597258509E-04       4    7    1         0.5320656794E-02      0.1312175991E-01

    ------------------------------------------------
       NWT REQUIRED            3 OUTER ITERATIONS 
       AND A TOTAL OF          5 INNER ITERATIONS.
    ------------------------------------------------

 NO OUTPUT CONTROL FOR STRESS PERIOD   15   TIME STEP   11
 
 SOLVING FOR HEAD 
                                                   Max.-Head-Change                         Max.-Flux-Residual
  Residual-Control   Outer-Iter.   Inner-Iter.     Column Row Layer    Maximum-Head-Change  Column Row Layer    Maximum-Flux-Residual          L2-NORM 
          0                 1           2             4    7     1       0.1435063095E-01       4    7    1         0.7528121701E+00      0.1860053554E+01
          0                 2           2             4    7     1      -0.1395929201E-02       4    7    1        -0.7528149464E-01      0.1860046125E+00
          0                 3           1             4    7     1       0.9505756551E-04       4    7    1         0.5269704271E-02      0.1302023543E-01

    ------------------------------------------------
       NWT REQUIRED            3 OUTER ITERATIONS 
       AND A TOTAL OF          5 INNER ITERATIONS.
    ------------------------------------------------

 NO OUTPUT CONTROL FOR STRESS PERIOD   15   TIME STEP   12
 
 SOLVING FOR HEAD 
                                                   Max.-Head-Change                         Max.-Flux-Residual
  Residual-Control   Outer-Iter.   Inner-Iter.     Column Row Layer    Maximum-Head-Change  Column Row Layer    Maximum-Flux-Residual          L2-NORM 
          0                 1           2             4    7     1       0.1421441865E-01       4    7    1         0.7456352461E+00      0.1845685745E+01
          0                 2           2             4    7     1      -0.1382679372E-02       4    7    1        -0.7456379642E-01      0.1845677965E+00
          0                 3           1             4    7     1       0.9415530203E-04       4    7    1         0.5219465425E-02      0.1291967117E-01

    ------------------------------------------------
       NWT REQUIRED            3 OUTER ITERATIONS 
       AND A TOTAL OF          5 INNER ITERATIONS.
    ------------------------------------------------

 NO OUTPUT CONTROL FOR STRESS PERIOD   15   TIME STEP   13
 
 SOLVING FOR HEAD 
                                                   Max.-Head-Change                         Max.-Flux-Residual
  Residual-Control   Outer-Iter.   Inner-Iter.     Column Row Layer    Maximum-Head-Change  Column Row Layer    Maximum-Flux-Residual          L2-NORM 
          0                 1           2             4    7     1       0.1407996856E-01       4    7    1         0.7385508399E+00      0.1831507915E+01
          0                 2           2             4    7     1      -0.1369600959E-02       4    7    1        -0.7385535010E-01      0.1831499614E+00
          0                 3           1             4    7     1       0.9326471176E-04       4    7    1         0.5169874221E-02      0.1282041992E-01

    ------------------------------------------------
       NWT REQUIRED            3 OUTER ITERATIONS 
       AND A TOTAL OF          5 INNER ITERATIONS.
    ------------------------------------------------

 NO OUTPUT CONTROL FOR STRESS PERIOD   15   TIME STEP   14
 
 SOLVING FOR HEAD 
                                                   Max.-Head-Change                         Max.-Flux-Residual
  Residual-Control   Outer-Iter.   Inner-Iter.     Column Row Layer    Maximum-Head-Change  Column Row Layer    Maximum-Flux-Residual          L2-NORM 
          0                 1           2             4    7     1       0.1394751354E-01       4    7    1         0.7315724544E+00      0.1817492263E+01
          0                 2           2             4    7     1      -0.1356587684E-02       4    7    1        -0.7316641357E-01      0.1817508289E+00
          0                 3           1             4    7     1       0.9225313114E-04       4    7    1         0.5113224476E-02      0.1272011545E-01

    ------------------------------------------------
       NWT REQUIRED            3 OUTER ITERATIONS 
       AND A TOTAL OF          5 INNER ITERATIONS.
    ------------------------------------------------

 NO OUTPUT CONTROL FOR STRESS PERIOD   15   TIME STEP   15
 
 SOLVING FOR HEAD 
                                                   Max.-Head-Change                         Max.-Flux-Residual
  Residual-Control   Outer-Iter.   Inner-Iter.     Column Row Layer    Maximum-Head-Change  Column Row Layer    Maximum-Flux-Residual          L2-NORM 
          0                 1           2             4    7     1       0.1381688049E-01       4    7    1         0.7246902016E+00      0.1803660009E+01
          0                 2           2             4    7     1      -0.1346682709E-02       4    7    1        -0.7263655356E-01      0.1804116931E+00
          0                 3           1             4    7     1       0.9170406217E-04       4    7    1         0.5084558328E-02      0.1262872054E-01

    ------------------------------------------------
       NWT REQUIRED            3 OUTER ITERATIONS 
       AND A TOTAL OF          5 INNER ITERATIONS.
    ------------------------------------------------

 NO OUTPUT CONTROL FOR STRESS PERIOD   15   TIME STEP   16
 
 SOLVING FOR HEAD 
                                                   Max.-Head-Change                         Max.-Flux-Residual
  Residual-Control   Outer-Iter.   Inner-Iter.     Column Row Layer    Maximum-Head-Change  Column Row Layer    Maximum-Flux-Residual          L2-NORM 
          0                 1           2             4    7     1       0.1368262405E-01       4    7    1         0.7177598169E+00      0.1789947011E+01
          0                 2           2             4    7     1      -0.1330950174E-02       4    7    1        -0.7177624843E-01      0.1789933158E+00
          0                 3           1             4    7     1       0.9063273634E-04       4    7    1         0.5024337043E-02      0.1252902582E-01

    ------------------------------------------------
       NWT REQUIRED            3 OUTER ITERATIONS 
       AND A TOTAL OF          5 INNER ITERATIONS.
    ------------------------------------------------

 NO OUTPUT CONTROL FOR STRESS PERIOD   15   TIME STEP   17
 
 SOLVING FOR HEAD 
                                                   Max.-Head-Change                         Max.-Flux-Residual
  Residual-Control   Outer-Iter.   Inner-Iter.     Column Row Layer    Maximum-Head-Change  Column Row Layer    Maximum-Flux-Residual          L2-NORM 
          0                 1           2             4    7     1       0.1355308384E-01       4    7    1         0.7109266477E+00      0.1776403615E+01
          0                 2           2             4    7     1      -0.1318349352E-02       4    7    1        -0.7109292534E-01      0.1776393503E+00
          0                 3           1             4    7     1       0.8977466793E-04       4    7    1         0.4976504453E-02      0.1243466377E-01

    ------------------------------------------------
       NWT REQUIRED            3 OUTER ITERATIONS 
       AND A TOTAL OF          5 INNER ITERATIONS.
    ------------------------------------------------

 NO OUTPUT CONTROL FOR STRESS PERIOD   15   TIME STEP   18
 
 SOLVING FOR HEAD 
                                                   Max.-Head-Change                         Max.-Flux-Residual
  Residual-Control   Outer-Iter.   Inner-Iter.     Column Row Layer    Maximum-Head-Change  Column Row Layer    Maximum-Flux-Residual          L2-NORM 
          0                 1           2             4    7     1       0.1342546703E-01       4    7    1         0.7041955057E+00      0.1763027277E+01
          0                 2           2             4    7     1      -0.1305935628E-02       4    7    1        -0.7041980516E-01      0.1763016914E+00
          0                 3           1             4    7     1       0.8892934023E-04       4    7    1         0.4929386081E-02      0.1234101838E-01

    ------------------------------------------------
       NWT REQUIRED            3 OUTER ITERATIONS 
       AND A TOTAL OF          5 INNER ITERATIONS.
    ------------------------------------------------

 NO OUTPUT CONTROL FOR STRESS PERIOD   15   TIME STEP   19
 
 SOLVING FOR HEAD 
                                                   Max.-Head-Change                         Max.-Flux-Residual
  Residual-Control   Outer-Iter.   Inner-Iter.     Column Row Layer    Maximum-Head-Change  Column Row Layer    Maximum-Flux-Residual          L2-NORM 
          0                 1           2             4    7     1       0.1329972194E-01       4    7    1         0.6975640884E+00      0.1749813818E+01
          0                 2           2             4    7     1      -0.1293703973E-02       4    7    1        -0.6975665759E-01      0.1749802888E+00
          0                 3           1             4    7     1       0.8809641054E-04       4    7    1         0.4882965786E-02      0.1224850832E-01

    ------------------------------------------------
       NWT REQUIRED            3 OUTER ITERATIONS 
       AND A TOTAL OF          5 INNER ITERATIONS.
    ------------------------------------------------

 NO OUTPUT CONTROL FOR STRESS PERIOD   15   TIME STEP   20
 
 SOLVING FOR HEAD 
                                                   Max.-Head-Change                         Max.-Flux-Residual
  Residual-Control   Outer-Iter.   Inner-Iter.     Column Row Layer    Maximum-Head-Change  Column Row Layer    Maximum-Flux-Residual          L2-NORM 
          0                 1           2             4    7     1       0.1317580689E-01       4    7    1         0.6910297164E+00      0.1736760134E+01
          0                 2           2             4    7     1      -0.1281650334E-02       4    7    1        -0.6910321475E-01      0.1736748998E+00
          0                 3           1             4    7     1       0.8727560314E-04       4    7    1         0.4837224816E-02      0.1215713039E-01

    ------------------------------------------------
       NWT REQUIRED            3 OUTER ITERATIONS 
       AND A TOTAL OF          5 INNER ITERATIONS.
    ------------------------------------------------

 NO OUTPUT CONTROL FOR STRESS PERIOD   15   TIME STEP   21
 
 SOLVING FOR HEAD 
                                                   Max.-Head-Change                         Max.-Flux-Residual
  Residual-Control   Outer-Iter.   Inner-Iter.     Column Row Layer    Maximum-Head-Change  Column Row Layer    Maximum-Flux-Residual          L2-NORM 
          0                 1           2             4    7     1       0.1305368280E-01       4    7    1         0.6845902286E+00      0.1723868367E+01
          0                 2           2             4    7     1      -0.1269770910E-02       4    7    1        -0.6845926047E-01      0.1723857077E+00
          0                 3           1             4    7     1       0.8646665970E-04       4    7    1         0.4792148063E-02      0.1206687996E-01

    ------------------------------------------------
       NWT REQUIRED            3 OUTER ITERATIONS 
       AND A TOTAL OF          5 INNER ITERATIONS.
    ------------------------------------------------

 NO OUTPUT CONTROL FOR STRESS PERIOD   15   TIME STEP   22
 
 SOLVING FOR HEAD 
                                                   Max.-Head-Change                         Max.-Flux-Residual
  Residual-Control   Outer-Iter.   Inner-Iter.     Column Row Layer    Maximum-Head-Change  Column Row Layer    Maximum-Flux-Residual          L2-NORM 
          0                 1           2             4    7     1       0.1293343701E-01       4    7    1         0.6782509278E+00      0.1711126276E+01
          0                 2           2             4    7     1      -0.1258074194E-02       4    7    1        -0.6782532507E-01      0.1711114786E+00
          0                 3           1             4    7     1       0.8567015734E-04       4    7    1         0.4747772614E-02      0.1197768795E-01

    ------------------------------------------------
       NWT REQUIRED            3 OUTER ITERATIONS 
       AND A TOTAL OF          5 INNER ITERATIONS.
    ------------------------------------------------

 NO OUTPUT CONTROL FOR STRESS PERIOD   15   TIME STEP   23
 
 SOLVING FOR HEAD 
                                                   Max.-Head-Change                         Max.-Flux-Residual
  Residual-Control   Outer-Iter.   Inner-Iter.     Column Row Layer    Maximum-Head-Change  Column Row Layer    Maximum-Flux-Residual          L2-NORM 
          0                 1           2             4    7     1       0.1281476039E-01       4    7    1         0.6719943560E+00      0.1698542801E+01
          0                 2           2             4    7     1      -0.1246530118E-02       4    7    1        -0.6719966269E-01      0.1698530669E+00
          0                 3           1             4    7     1       0.8488404884E-04       4    7    1         0.4703976270E-02      0.1188957834E-01

    ------------------------------------------------
       NWT REQUIRED            3 OUTER ITERATIONS 
       AND A TOTAL OF          5 INNER ITERATIONS.
    ------------------------------------------------

 NO OUTPUT CONTROL FOR STRESS PERIOD   15   TIME STEP   24
 
 SOLVING FOR HEAD 
                                                   Max.-Head-Change                         Max.-Flux-Residual
  Residual-Control   Outer-Iter.   Inner-Iter.     Column Row Layer    Maximum-Head-Change  Column Row Layer    Maximum-Flux-Residual          L2-NORM 
          0                 1           2             4    7     1       0.1269788583E-01       4    7    1         0.6658338000E+00      0.1686098470E+01
          0                 2           2             4    7     1      -0.1235161336E-02       4    7    1        -0.6658360206E-01      0.1686086389E+00
          0                 3           1             4    7     1       0.8410987791E-04       4    7    1         0.4660852054E-02      0.1180250724E-01

    ------------------------------------------------
       NWT REQUIRED            3 OUTER ITERATIONS 
       AND A TOTAL OF          5 INNER ITERATIONS.
    ------------------------------------------------

 NO OUTPUT CONTROL FOR STRESS PERIOD   15   TIME STEP   25
 
 SOLVING FOR HEAD 
                                                   Max.-Head-Change                         Max.-Flux-Residual
  Residual-Control   Outer-Iter.   Inner-Iter.     Column Row Layer    Maximum-Head-Change  Column Row Layer    Maximum-Flux-Residual          L2-NORM 
          0                 1           2             4    7     1       0.1258263678E-01       4    7    1         0.6597593494E+00      0.1673812004E+01
          0                 2           2             4    7     1      -0.1223950673E-02       4    7    1        -0.6597615210E-01      0.1673799731E+00
          0                 3           1             4    7     1       0.8334647383E-04       4    7    1         0.4618330586E-02      0.1171648707E-01

    ------------------------------------------------
       NWT REQUIRED            3 OUTER ITERATIONS 
       AND A TOTAL OF          5 INNER ITERATIONS.
    ------------------------------------------------

 NO OUTPUT CONTROL FOR STRESS PERIOD   15   TIME STEP   26
 
 SOLVING FOR HEAD 
                                                   Max.-Head-Change                         Max.-Flux-Residual
  Residual-Control   Outer-Iter.   Inner-Iter.     Column Row Layer    Maximum-Head-Change  Column Row Layer    Maximum-Flux-Residual          L2-NORM 
          0                 1           2             4    7     1       0.1246911420E-01       4    7    1         0.6537765074E+00      0.1661673841E+01
          0                 2           2             4    7     1      -0.1212907951E-02       4    7    1        -0.6537786313E-01      0.1661661172E+00
          0                 3           1             4    7     1       0.8259450616E-04       4    7    1         0.4576450384E-02      0.1163150150E-01

    ------------------------------------------------
       NWT REQUIRED            3 OUTER ITERATIONS 
       AND A TOTAL OF          5 INNER ITERATIONS.
    ------------------------------------------------

 NO OUTPUT CONTROL FOR STRESS PERIOD   15   TIME STEP   27
 
 SOLVING FOR HEAD 
                                                   Max.-Head-Change                         Max.-Flux-Residual
  Residual-Control   Outer-Iter.   Inner-Iter.     Column Row Layer    Maximum-Head-Change  Column Row Layer    Maximum-Flux-Residual          L2-NORM 
          0                 1           2             4    7     1       0.1235713762E-01       4    7    1         0.6478758512E+00      0.1649666950E+01
          0                 2           2             4    7     1      -0.1202015615E-02       4    7    1        -0.6478779289E-01      0.1649654305E+00
          0                 3           1             4    7     1       0.8185277923E-04       4    7    1         0.4535145493E-02      0.1154746476E-01

    ------------------------------------------------
       NWT REQUIRED            3 OUTER ITERATIONS 
       AND A TOTAL OF          5 INNER ITERATIONS.
    ------------------------------------------------

 NO OUTPUT CONTROL FOR STRESS PERIOD   15   TIME STEP   28
 
 SOLVING FOR HEAD 
                                                   Max.-Head-Change                         Max.-Flux-Residual
  Residual-Control   Outer-Iter.   Inner-Iter.     Column Row Layer    Maximum-Head-Change  Column Row Layer    Maximum-Flux-Residual          L2-NORM 
          0                 1           2             4    7     1       0.1224675186E-01       4    7    1         0.6420553522E+00      0.1647482509E+01
          0                 2           2             4    7     1      -0.1191278022E-02       4    7    1        -0.6420573842E-01      0.1680538627E+00
          0                 3           1             4    7     1       0.8112158923E-04       4    7    1         0.4494401717E-02      0.1175669488E-01

    ------------------------------------------------
       NWT REQUIRED            3 OUTER ITERATIONS 
       AND A TOTAL OF          5 INNER ITERATIONS.
    ------------------------------------------------

 NO OUTPUT CONTROL FOR STRESS PERIOD   15   TIME STEP   29
 
 SOLVING FOR HEAD 
                                                   Max.-Head-Change                         Max.-Flux-Residual
  Residual-Control   Outer-Iter.   Inner-Iter.     Column Row Layer    Maximum-Head-Change  Column Row Layer    Maximum-Flux-Residual          L2-NORM 
          0                 1           2             4    7     1       0.1213810008E-01       4    7    1         0.6363173349E+00      0.1981952587E+01
          0                 2           2             4    7     1      -0.1180709098E-02       4    7    1        -0.6363193206E-01      0.1964815052E+00
          0                 3           1             4    7     1       0.8040188415E-04       4    7    1         0.4454235289E-02      0.1359632334E-01

    ------------------------------------------------
       NWT REQUIRED            3 OUTER ITERATIONS 
       AND A TOTAL OF          5 INNER ITERATIONS.
    ------------------------------------------------

 NO OUTPUT CONTROL FOR STRESS PERIOD   15   TIME STEP   30



 STREAM LISTING     PERIOD     15   STEP       30

 LAYER ROW COL. STREAM  RCH.  FLOW INTO     FLOW TO   FLOW OUT OF   OVRLND.     DIRECT     STREAM       STREAM     STREAM     STREAM   STREAMBED  STREAMBED
                SEG.NO.  NO.  STRM. RCH.    AQUIFER    STRM. RCH.    RUNOFF     PRECIP       ET          HEAD       DEPTH      WIDTH   CONDCTNC.   GRADIENT

   1    1    1     1     1    3.6751E+01  2.9262E-01   3.6458E+01  0.000E+00  0.000E+00  0.000E+00  1.09435E+03  1.306E+00  1.510E+01  6.795E-02  1.435E+00
   1    2    2     1     2    3.6458E+01  4.5310E-01   3.6005E+01  0.000E+00  0.000E+00  0.000E+00  1.08936E+03  1.303E+00  1.504E+01  1.053E-01  1.434E+00
   1    3    3     1     3    3.6005E+01  3.8635E-01   3.5618E+01  0.000E+00  0.000E+00  0.000E+00  1.08372E+03  1.300E+00  1.497E+01  8.985E-02  1.433E+00
   1    3    4     1     4    3.5618E+01  3.5572E-01   3.5263E+01  0.000E+00  0.000E+00  0.000E+00  1.07870E+03  1.297E+00  1.492E+01  8.278E-02  1.432E+00
   1    4    5     2     1    3.3263E+01  3.4544E-01   3.2917E+01  0.000E+00  0.000E+00  0.000E+00  1.07336E+03  1.429E+00  1.200E+01  7.800E-02  1.476E+00
   1    5    6     2     2    3.2917E+01  2.6525E-01   3.2652E+01  0.000E+00  0.000E+00  0.000E+00  1.06793E+03  1.421E+00  1.200E+01  6.000E-02  1.474E+00
   1    6    6     2     3    3.2652E+01  2.6484E-01   3.2387E+01  0.000E+00  0.000E+00  0.000E+00  1.06321E+03  1.414E+00  1.200E+01  6.000E-02  1.471E+00
   1    7    6     2     4    3.2387E+01  2.6442E-01   3.2123E+01  0.000E+00  0.000E+00  0.000E+00  1.05848E+03  1.407E+00  1.200E+01  6.000E-02  1.469E+00
   1    8    6     2     5    3.2123E+01  2.6401E-01   3.1859E+01  0.000E+00  0.000E+00  0.000E+00  1.05376E+03  1.400E+00  1.200E+01  6.000E-02  1.467E+00
   1    3    5     3     1    2.0000E+00  2.8252E-01   1.7175E+00  0.000E+00  0.000E+00  0.000E+00  1.07555E+03  1.909E+00  9.636E+00  7.227E-02  1.955E+00
   1    3    6     3     2    1.7175E+00  2.4905E-01   1.4684E+00  0.000E+00  0.000E+00  0.000E+00  1.07264E+03  1.727E+00  8.909E+00  6.682E-02  1.864E+00
   1    3    7     3     3    1.4684E+00  1.9718E-01   1.2712E+00  0.000E+00  0.000E+00  0.000E+00  1.06987E+03  1.555E+00  8.218E+00  5.547E-02  1.777E+00
   1    4    8     3     4    1.2712E+00  2.2567E-01   1.0456E+00  0.000E+00  0.000E+00  0.000E+00  1.06682E+03  1.364E+00  7.455E+00  6.709E-02  1.682E+00
   1    5    8     3     5    1.0456E+00  1.5790E-01   8.8768E-01  0.000E+00  0.000E+00  0.000E+00  1.06362E+03  1.164E+00  6.655E+00  4.991E-02  1.582E+00
   1    6    8     3     6    8.8768E-01  5.5980E-02   8.3170E-01  0.000E+00  0.000E+00  0.000E+00  1.06158E+03  1.036E+00  6.145E+00  1.844E-02  1.518E+00
   1    5   10     4     1    1.0000E+01  9.0919E-02   9.9091E+00  0.000E+00  0.000E+00  0.000E+00  1.07836E+03  6.368E-01  1.000E+01  2.500E-02  1.212E+00
   1    5    9     4     2    9.9091E+00  1.8158E-01   9.7275E+00  0.000E+00  0.000E+00  0.000E+00  1.07154E+03  6.315E-01  1.000E+01  5.000E-02  1.211E+00
   1    6    8     4     3    9.7275E+00  1.2689E-01   9.6006E+00  0.000E+00  0.000E+00  0.000E+00  1.06381E+03  6.256E-01  1.000E+01  3.500E-02  1.209E+00
   1    6    8     5     1    1.0432E+01  2.2686E-01   1.0205E+01  0.000E+00  0.000E+00  0.000E+00  1.05868E+03  6.790E-01  1.542E+01  6.166E-02  1.226E+00
   1    7    7     5     2    1.0205E+01  2.7894E-01   9.9265E+00  0.000E+00  0.000E+00  0.000E+00  1.05417E+03  6.732E-01  1.519E+01  7.594E-02  1.224E+00
   1    8    7     5     3    9.9265E+00  1.9221E-01   9.7343E+00  0.000E+00  0.000E+00  0.000E+00  1.04992E+03  6.676E-01  1.497E+01  5.241E-02  1.223E+00
   1    8    6     5     4    9.7343E+00  1.3577E-01   9.5985E+00  0.000E+00  0.000E+00  0.000E+00  1.04691E+03  6.637E-01  1.482E+01  3.706E-02  1.221E+00
   1    9    6     6     1    4.1457E+01  2.7904E-01   4.1178E+01  0.000E+00  0.000E+00  0.000E+00  1.04438E+03  1.651E+00  1.200E+01  6.000E-02  1.550E+00
   1   10    7     6     2    4.1178E+01  2.7864E-01   4.0900E+01  0.000E+00  0.000E+00  0.000E+00  1.03983E+03  1.644E+00  1.200E+01  6.000E-02  1.548E+00
   1   11    7     6     3    4.0900E+01  2.7823E-01   4.0621E+01  0.000E+00  0.000E+00  0.000E+00  1.03527E+03  1.637E+00  1.200E+01  6.000E-02  1.546E+00
   1   12    7     6     4    4.0621E+01  2.7783E-01   4.0344E+01  0.000E+00  0.000E+00  0.000E+00  1.03072E+03  1.631E+00  1.200E+01  6.000E-02  1.544E+00
   1   13    7     6     5    4.0344E+01  1.8314E-02   4.0325E+01  0.000E+00  0.000E+00  0.000E+00  1.02754E+03  1.627E+00  1.200E+01  2.400E-02  2.544E-01
   1   14    9     7     1    1.5000E+02  1.3690E+00   1.4863E+02  0.000E+00  0.000E+00  0.000E+00  1.03987E+03  2.288E+00  5.529E+01  5.593E-01  8.159E-01
   1   13    8     7     2    1.4863E+02  1.9279E+00   1.4670E+02  0.000E+00  0.000E+00  0.000E+00  1.03478E+03  2.279E+00  5.525E+01  6.148E-01  1.045E+00
   1   13    7     7     3    1.4670E+02  1.6281E+00   1.4507E+02  0.000E+00  0.000E+00  0.000E+00  1.02969E+03  2.269E+00  5.521E+01  5.584E-01  9.719E-01
   1   13    6     8     1    1.8540E+02  1.1580E+00   1.8424E+02  0.000E+00  0.000E+00  0.000E+00  1.02492E+03  3.046E+00  4.417E+01  4.501E-01  8.575E-01
   1   13    5     8     2    1.8424E+02  3.7630E-01   1.8387E+02  0.000E+00  0.000E+00  0.000E+00  1.01867E+03  3.041E+00  4.410E+01  4.494E-01  2.791E-01
   1   13    4     8     3    1.8387E+02 -1.4445E+00   1.8531E+02  0.000E+00  0.000E+00  0.000E+00  1.01242E+03  3.045E+00  4.415E+01  4.499E+00 -1.070E-01
   1   13    3     8     4    1.8531E+02 -2.9489E+00   1.8826E+02  0.000E+00  0.000E+00  0.000E+00  1.00618E+03  3.058E+00  4.435E+01  4.519E+00 -2.175E-01
   1   13    2     8     5    1.8826E+02 -1.9854E+00   1.9024E+02  0.000E+00  0.000E+00  0.000E+00  9.99948E+02  3.073E+00  4.456E+01  4.541E+00 -1.457E-01
   1   13    1     8     6    1.9024E+02 -1.6556E+00   1.9190E+02  0.000E+00  0.000E+00  0.000E+00  9.94959E+02  3.084E+00  4.472E+01  2.735E+00 -2.018E-01
   1    8    6     9     1    0.0000E+00  0.0000E+00   0.0000E+00  0.000E+00  0.000E+00  0.000E+00  1.07875E+03  0.000E+00  4.000E+00  0.000E+00  1.000E+00
   1    8    5     9     2    0.0000E+00  0.0000E+00   0.0000E+00  0.000E+00  0.000E+00  0.000E+00  1.07825E+03  0.000E+00  4.000E+00  0.000E+00  1.000E+00





UNSATURATED ZONE PACKAGE VOLUMETRIC BUDGET FOR  TIME STEP    30 STRESS PERIOD   15
  ------------------------------------------------------------------------------



     CUMULATIVE VOLUMES      L**3       RATES FOR THIS TIME STEP      L**3/T
     ------------------                 ------------------------

           IN:                                      IN:
           ---                                      ---
        INFILTRATION =   435167805.6075          INFILTRATION =           0.8475

          OUT:                                     OUT:
          ----                                     ----
              UZF ET =   433984522.7877                UZF ET =           0.7500
        UZF RECHARGE =       73224.0000          UZF RECHARGE =       0.0000E+00

            IN - OUT =     1110058.8199              IN - OUT =       9.7500E-02

          STORAGE:                                 STORAGE:
          --------                                 --------
      STORAGE CHANGE =     1110058.7338        STORAGE CHANGE =       9.7500E-02

 PERCENT DISCREPANCY IS DIFFERENCE BETWEEN IN-OUT MINUS CHANGE IN STORAGE
 DIVIDED BY THE AVERAGE OF IN AND OUT TIMES 100

 PERCENT DISCREPANCY =           0.00     PERCENT DISCREPANCY =           0.00






1
  VOLUMETRIC BUDGET FOR AGRICULTURAL FIELDS AT  END OF TIME STEP   30, STRESS PERIOD  15
  ------------------------------------------------------------------------------

     CUMULATIVE VOLUMES      L**3       RATES FOR THIS TIME STEP      L**3/T
     ------------------                 ------------------------

           IN:                                      IN:
           ---                                      ---
               AG WELLS  =   403889344.0000                 AG WELLS  =           0.0000
      DIVERSION SEGMENTS =           0.0000        DIVERSION SEGMENTS =           0.0000
       IRRIGATION PONDS  =           0.0000         IRRIGATION PONDS  =           0.0000
           GW IRRIGATION =           0.0000             GW IRRIGATION =           0.0000
           SW IRRIGATION =           0.0000             SW IRRIGATION =           0.0000
        SYSTEM LOSSES GW =           0.0000          SYSTEM LOSSES GW =           0.0000
        SYSTEM LOSSES SW =           0.0000          SYSTEM LOSSES SW =           0.0000

                TOTAL IN =   403889344.0000                  TOTAL IN =           0.0000

          OUT:                                     OUT:
          ----                                     ----
               AG WELLS  =           0.0000                 AG WELLS  =           0.0000
      DIVERSION SEGMENTS =           0.0000        DIVERSION SEGMENTS =           0.0000
       IRRIGATION PONDS  =           0.0000         IRRIGATION PONDS  =           0.0000
           GW IRRIGATION =   403889344.0000             GW IRRIGATION =           0.0000
           SW IRRIGATION =           0.0000             SW IRRIGATION =           0.0000
        SYSTEM LOSSES GW =           0.0000          SYSTEM LOSSES GW =           0.0000
        SYSTEM LOSSES SW =           0.0000          SYSTEM LOSSES SW =           0.0000

               TOTAL OUT =   403889344.0000                 TOTAL OUT =           0.0000

                IN - OUT =           0.0000                  IN - OUT =           0.0000

     PERCENT DISCREPANCY =           0.00         PERCENT DISCREPANCY =           0.00



1
  VOLUMETRIC BUDGET FOR ENTIRE MODEL AT END OF TIME STEP   30, STRESS PERIOD  15
  ------------------------------------------------------------------------------

     CUMULATIVE VOLUMES      L**3       RATES FOR THIS TIME STEP      L**3/T
     ------------------                 ------------------------

           IN:                                      IN:
           ---                                      ---
             STORAGE     =   552045248.0000               STORAGE     =           3.9523
       CONSTANT HEAD     =           0.0000         CONSTANT HEAD     =           0.0000
     HEAD DEP BOUNDS     =    10626391.0000       HEAD DEP BOUNDS     =           0.2880
      STREAM LEAKAGE     =   432224224.0000        STREAM LEAKAGE     =          12.8846
        UZF RECHARGE     =       73223.9531          UZF RECHARGE     =           0.0000
               GW ET     =           0.0000                 GW ET     =           0.0000
     SURFACE LEAKAGE     =           0.0000       SURFACE LEAKAGE     =           0.0000
           AG WELLS      =           0.0000             AG WELLS      =           0.0000

                TOTAL IN =   994969088.0000                  TOTAL IN =          17.1249

          OUT:                                     OUT:
          ----                                     ----
             STORAGE     =   202580880.0000               STORAGE     =           8.8044
       CONSTANT HEAD     =           0.0000         CONSTANT HEAD     =           0.0000
     HEAD DEP BOUNDS     =    10662369.0000       HEAD DEP BOUNDS     =           0.2875
      STREAM LEAKAGE     =   377839808.0000        STREAM LEAKAGE     =           8.0344
        UZF RECHARGE     =           0.0000          UZF RECHARGE     =           0.0000
               GW ET     =           0.0000                 GW ET     =           0.0000
     SURFACE LEAKAGE     =           0.0000       SURFACE LEAKAGE     =           0.0000
           AG WELLS      =   403889344.0000             AG WELLS      =           0.0000

               TOTAL OUT =   994972416.0000                 TOTAL OUT =          17.1263

                IN - OUT =       -3328.0000                  IN - OUT =      -1.3771E-03

     PERCENT DISCREPANCY =          -0.00         PERCENT DISCREPANCY =          -0.01






         TIME SUMMARY AT END OF TIME STEP   30 IN STRESS PERIOD   15
                    SECONDS     MINUTES      HOURS       DAYS        YEARS
                    -----------------------------------------------------------
   TIME STEP LENGTH  87667.      1461.1      24.352      1.0147     2.77799E-03
 STRESS PERIOD TIME 2.63000E+06  43833.      730.56      30.440     8.33397E-02
         TOTAL TIME 3.69063E+07 6.15106E+05  10252.      427.16      1.1695    
1
1
                            STRESS PERIOD NO.   16, LENGTH =   2630000.    
                            -----------------------------------------------

                              NUMBER OF TIME STEPS =    30

                               MULTIPLIER FOR DELT =     1.000

                            INITIAL TIME STEP SIZE =   87666.66    

 REUSING NON-PARAMETER GHB CELLS FROM LAST STRESS PERIOD

      2 GHB CELLS

 REUSING STREAM SEGMENT DATA FROM LAST STRESS PERIOD



            AREAL INFILTRATION RATE
 READING ON UNIT   19 WITH FORMAT: (FREE)              

            1           2           3           4           5           6           7           8           9          10
 ........................................................................................................................
   1   1.0000E-10  2.0000E-10   0.000       0.000       0.000       0.000       0.000       0.000       0.000       0.000    
   2   2.0000E-10  1.0000E-10  2.0000E-10   0.000       0.000      8.0000E-10  8.0000E-10  5.0000E-10   0.000       0.000    
   3    0.000      5.0000E-10  1.0000E-10  1.0000E-10  8.0000E-10  8.0000E-10  5.0000E-10  5.0000E-10   0.000       0.000    
   4   8.0000E-10  5.0000E-10  1.0000E-10  1.0000E-10  1.0000E-10  1.0000E-10  1.0000E-10  1.0000E-10  2.0000E-10   0.000    
   5   8.0000E-10  5.0000E-10  1.0000E-10  1.0000E-10  1.0000E-10  1.0000E-10  1.0000E-10  1.0000E-10  1.0000E-10  1.0000E-10
   6   8.0000E-10  5.0000E-10  5.0000E-10  2.0000E-10  2.0000E-10  1.0000E-10  1.0000E-10  1.0000E-10  1.0000E-10  5.0000E-10
   7   8.0000E-10  5.0000E-10  5.0000E-10  2.0000E-10  2.0000E-10  1.0000E-10  1.0000E-10  2.0000E-10  2.0000E-10   0.000    
   8    0.000      5.0000E-10  5.0000E-10  2.0000E-10  2.0000E-10  1.0000E-10  1.0000E-10  2.0000E-10  5.0000E-10   0.000    
   9    0.000      5.0000E-10  5.0000E-10  2.0000E-10  2.0000E-10  1.0000E-10  1.0000E-10  2.0000E-10  5.0000E-10   0.000    
  10    0.000      5.0000E-10  5.0000E-10  2.0000E-10  2.0000E-10  1.0000E-10  1.0000E-10  2.0000E-10  5.0000E-10  8.0000E-10
  11    0.000      1.0000E-10  1.0000E-10  1.0000E-10  1.0000E-10  1.0000E-10  1.0000E-10  2.0000E-10  5.0000E-10   0.000    
  12   1.0000E-10  1.0000E-10  1.0000E-10  1.0000E-10  1.0000E-10  1.0000E-10  1.0000E-10  1.0000E-10  2.0000E-10   0.000    
  13   1.0000E-10  1.0000E-10  2.0000E-10  2.0000E-10  2.0000E-10  2.0000E-10  2.0000E-10  1.0000E-10  1.0000E-10   0.000    
  14    0.000      2.0000E-10  5.0000E-10  5.0000E-10  5.0000E-10  5.0000E-10  5.0000E-10  2.0000E-10  1.0000E-10   0.000    
  15    0.000       0.000      8.0000E-10  8.0000E-10  8.0000E-10  8.0000E-10   0.000       0.000       0.000       0.000    

                  ET RATE =  5.000000E-10

 USING ET EXTINCTION DEPTH FROM PREVIOUS STRESS PERIOD. CURRENT PERIOD IS:      16

 USING EXTINCTION WATER CONTENT FROM PREVIOUS STRESS PERIOD. CURRENT PERIOD IS:      16

 USING AIR ENTRY PRESSURE FROM PREVIOUS STRESS PERIOD. CURRENT PERIOD IS:      16

 USING ROOT PRESSURE HEAD FROM PREVIOUS STRESS PERIOD. CURRENT PERIOD IS:      16

 USING ROOT ACTIVITY FROM PREVIOUS STRESS PERIOD. CURRENT PERIOD IS:      16

 PROCESSING AG STRESS PERIOD DATA

 READING AG STRESS PERIOD DATA

 READING IRRIGATION SEGMENT

 READING IRRIGATION WELL

 READING SUPPLEMENTAL WELL

 NO IRRPOND OR REUSING IRRPOND DATA FROM LAST STRESS PERIOD

 END PROCESSING AG STRESS PERIOD DATA OPTIONS
 
 SOLVING FOR HEAD 
                                                   Max.-Head-Change                         Max.-Flux-Residual
  Residual-Control   Outer-Iter.   Inner-Iter.     Column Row Layer    Maximum-Head-Change  Column Row Layer    Maximum-Flux-Residual          L2-NORM 
          0                 1           2             4    7     1       0.1203126481E-01       4    7    1         0.6306765554E+00      0.1925585707E+01
          0                 2           2             4    7     1      -0.1170316873E-02       4    7    1        -0.6306784964E-01      0.1910689839E+00
          0                 3           1             4    7     1       0.7969421308E-04       4    7    1         0.4414749550E-02      0.1323849031E-01

    ------------------------------------------------
       NWT REQUIRED            3 OUTER ITERATIONS 
       AND A TOTAL OF          5 INNER ITERATIONS.
    ------------------------------------------------

 NO OUTPUT CONTROL FOR STRESS PERIOD   16   TIME STEP    1
 
 SOLVING FOR HEAD 
                                                   Max.-Head-Change                         Max.-Flux-Residual
  Residual-Control   Outer-Iter.   Inner-Iter.     Column Row Layer    Maximum-Head-Change  Column Row Layer    Maximum-Flux-Residual          L2-NORM 
          0                 1           2             4    7     1       0.1192605883E-01       4    7    1         0.6251226279E+00      0.1875526838E+01
          0                 2           2             4    7     1      -0.1160083136E-02       4    7    1        -0.6251245254E-01      0.1862601204E+00
          0                 3           1             4    7     1       0.7899733408E-04       4    7    1         0.4375871772E-02      0.1291992513E-01

    ------------------------------------------------
       NWT REQUIRED            3 OUTER ITERATIONS 
       AND A TOTAL OF          5 INNER ITERATIONS.
    ------------------------------------------------

 NO OUTPUT CONTROL FOR STRESS PERIOD   16   TIME STEP    2
 
 SOLVING FOR HEAD 
                                                   Max.-Head-Change                         Max.-Flux-Residual
  Residual-Control   Outer-Iter.   Inner-Iter.     Column Row Layer    Maximum-Head-Change  Column Row Layer    Maximum-Flux-Residual          L2-NORM 
          0                 1           2             4    7     1       0.1182257086E-01       4    7    1         0.6196605072E+00      0.1830965720E+01
          0                 2           2             4    7     1      -0.1150016516E-02       4    7    1        -0.6196623628E-01      0.1819763008E+00
          0                 3           1             4    7     1       0.7831183539E-04       4    7    1         0.4337636653E-02      0.1263522215E-01

    ------------------------------------------------
       NWT REQUIRED            3 OUTER ITERATIONS 
       AND A TOTAL OF          5 INNER ITERATIONS.
    ------------------------------------------------

 NO OUTPUT CONTROL FOR STRESS PERIOD   16   TIME STEP    3
 
 SOLVING FOR HEAD 
                                                   Max.-Head-Change                         Max.-Flux-Residual
  Residual-Control   Outer-Iter.   Inner-Iter.     Column Row Layer    Maximum-Head-Change  Column Row Layer    Maximum-Flux-Residual          L2-NORM 
          0                 1           2             4    7     1       0.1172061588E-01       4    7    1         0.6142801316E+00      0.1791180241E+01
          0                 2           2             4    7     1      -0.1140099017E-02       4    7    1        -0.6142819464E-01      0.1781482029E+00
          0                 3           1             4    7     1       0.7763649116E-04       4    7    1         0.4299973772E-02      0.1238166201E-01

    ------------------------------------------------
       NWT REQUIRED            3 OUTER ITERATIONS 
       AND A TOTAL OF          5 INNER ITERATIONS.
    ------------------------------------------------

 NO OUTPUT CONTROL FOR STRESS PERIOD   16   TIME STEP    4
 
 SOLVING FOR HEAD 
                                                   Max.-Head-Change                         Max.-Flux-Residual
  Residual-Control   Outer-Iter.   Inner-Iter.     Column Row Layer    Maximum-Head-Change  Column Row Layer    Maximum-Flux-Residual          L2-NORM 
          0                 1           2             4    7     1       0.1162028601E-01       4    7    1         0.6089865693E+00      0.1755532426E+01
          0                 2           2             4    7     1      -0.1130339598E-02       4    7    1        -0.6089883445E-01      0.1747138660E+00
          0                 3           1             4    7     1       0.7697191155E-04       4    7    1         0.4262918572E-02      0.1215300222E-01

    ------------------------------------------------
       NWT REQUIRED            3 OUTER ITERATIONS 
       AND A TOTAL OF          5 INNER ITERATIONS.
    ------------------------------------------------

 NO OUTPUT CONTROL FOR STRESS PERIOD   16   TIME STEP    5
 
 SOLVING FOR HEAD 
                                                   Max.-Head-Change                         Max.-Flux-Residual
  Residual-Control   Outer-Iter.   Inner-Iter.     Column Row Layer    Maximum-Head-Change  Column Row Layer    Maximum-Flux-Residual          L2-NORM 
          0                 1           2             4    7     1       0.1152140238E-01       4    7    1         0.6037699356E+00      0.1723475270E+01
          0                 2           2             4    7     1      -0.1120720860E-02       4    7    1        -0.6037716726E-01      0.1716229135E+00
          0                 3           1             4    7     1       0.7631691200E-04       4    7    1         0.4226401894E-02      0.1194732789E-01

    ------------------------------------------------
       NWT REQUIRED            3 OUTER ITERATIONS 
       AND A TOTAL OF          5 INNER ITERATIONS.
    ------------------------------------------------

 NO OUTPUT CONTROL FOR STRESS PERIOD   16   TIME STEP    6
 
 SOLVING FOR HEAD 
                                                   Max.-Head-Change                         Max.-Flux-Residual
  Residual-Control   Outer-Iter.   Inner-Iter.     Column Row Layer    Maximum-Head-Change  Column Row Layer    Maximum-Flux-Residual          L2-NORM 
          0                 1           2             4    7     1       0.1142392577E-01       4    7    1         0.5986282867E+00      0.1694524672E+01
          0                 2           2             4    7     1      -0.1111238989E-02       4    7    1        -0.5986299864E-01      0.1688275599E+00
          0                 3           1             4    7     1       0.7567123264E-04       4    7    1         0.4190410113E-02      0.1176040705E-01

    ------------------------------------------------
       NWT REQUIRED            3 OUTER ITERATIONS 
       AND A TOTAL OF          5 INNER ITERATIONS.
    ------------------------------------------------

 NO OUTPUT CONTROL FOR STRESS PERIOD   16   TIME STEP    7
 
 SOLVING FOR HEAD 
                                                   Max.-Head-Change                         Max.-Flux-Residual
  Residual-Control   Outer-Iter.   Inner-Iter.     Column Row Layer    Maximum-Head-Change  Column Row Layer    Maximum-Flux-Residual          L2-NORM 
          0                 1           2             4    7     1       0.1132809026E-01       4    7    1         0.5935742517E+00      0.1668264470E+01
          0                 2           2             4    7     1      -0.1101916753E-02       4    7    1        -0.5935759153E-01      0.1662865288E+00
          0                 3           1             4    7     1       0.7503642345E-04       4    7    1         0.4155031628E-02      0.1159039915E-01

    ------------------------------------------------
       NWT REQUIRED            3 OUTER ITERATIONS 
       AND A TOTAL OF          5 INNER ITERATIONS.
    ------------------------------------------------

 NO OUTPUT CONTROL FOR STRESS PERIOD   16   TIME STEP    8
 
 SOLVING FOR HEAD 
                                                   Max.-Head-Change                         Max.-Flux-Residual
  Residual-Control   Outer-Iter.   Inner-Iter.     Column Row Layer    Maximum-Head-Change  Column Row Layer    Maximum-Flux-Residual          L2-NORM 
          0                 1           2             4    7     1       0.1123344382E-01       4    7    1         0.5885833112E+00      0.1644327843E+01
          0                 2           2             4    7     1      -0.1092710184E-02       4    7    1        -0.5885849396E-01      0.1639672476E+00
          0                 3           1             4    7     1       0.7440949051E-04       4    7    1         0.4120094822E-02      0.1143504664E-01

    ------------------------------------------------
       NWT REQUIRED            3 OUTER ITERATIONS 
       AND A TOTAL OF          5 INNER ITERATIONS.
    ------------------------------------------------

 NO OUTPUT CONTROL FOR STRESS PERIOD   16   TIME STEP    9
 
 SOLVING FOR HEAD 
                                                   Max.-Head-Change                         Max.-Flux-Residual
  Residual-Control   Outer-Iter.   Inner-Iter.     Column Row Layer    Maximum-Head-Change  Column Row Layer    Maximum-Flux-Residual          L2-NORM 
          0                 1           2             4    7     1       0.1114036310E-01       4    7    1         0.5836760165E+00      0.1622404991E+01
          0                 2           2             4    7     1      -0.1083655917E-02       4    7    1        -0.5836776108E-01      0.1618390518E+00
          0                 3           1             4    7     1       0.7379292918E-04       4    7    1         0.4085743546E-02      0.1129225022E-01

    ------------------------------------------------
       NWT REQUIRED            3 OUTER ITERATIONS 
       AND A TOTAL OF          5 INNER ITERATIONS.
    ------------------------------------------------

 NO OUTPUT CONTROL FOR STRESS PERIOD   16   TIME STEP   10
 
 SOLVING FOR HEAD 
                                                   Max.-Head-Change                         Max.-Flux-Residual
  Residual-Control   Outer-Iter.   Inner-Iter.     Column Row Layer    Maximum-Head-Change  Column Row Layer    Maximum-Flux-Residual          L2-NORM 
          0                 1           2             4    7     1       0.1104853376E-01       4    7    1         0.5788352379E+00      0.1602223902E+01
          0                 2           2             4    7     1      -0.1074723378E-02       4    7    1        -0.5788367992E-01      0.1598763579E+00
          0                 3           1             4    7     1       0.7318465663E-04       4    7    1         0.4051857864E-02      0.1114223096E-01

    ------------------------------------------------
       NWT REQUIRED            3 OUTER ITERATIONS 
       AND A TOTAL OF          5 INNER ITERATIONS.
    ------------------------------------------------

 NO OUTPUT CONTROL FOR STRESS PERIOD   16   TIME STEP   11
 
 SOLVING FOR HEAD 
                                                   Max.-Head-Change                         Max.-Flux-Residual
  Residual-Control   Outer-Iter.   Inner-Iter.     Column Row Layer    Maximum-Head-Change  Column Row Layer    Maximum-Flux-Residual          L2-NORM 
          0                 1           2             4    7     1       0.1095792782E-01       4    7    1         0.5740593419E+00      0.1583553306E+01
          0                 2           2             4    7     1      -0.1065909842E-02       4    7    1        -0.5740608707E-01      0.1580567041E+00
          0                 3           1             4    7     1       0.7258448788E-04       4    7    1         0.4018426374E-02      0.1103685568E-01

    ------------------------------------------------
       NWT REQUIRED            3 OUTER ITERATIONS 
       AND A TOTAL OF          5 INNER ITERATIONS.
    ------------------------------------------------

 NO OUTPUT CONTROL FOR STRESS PERIOD   16   TIME STEP   12
 
 SOLVING FOR HEAD 
                                                   Max.-Head-Change                         Max.-Flux-Residual
  Residual-Control   Outer-Iter.   Inner-Iter.     Column Row Layer    Maximum-Head-Change  Column Row Layer    Maximum-Flux-Residual          L2-NORM 
          0                 1           2             4    7     1       0.1086878451E-01       4    7    1         0.5693615408E+00      0.1566201411E+01
          0                 2           2             4    7     1      -0.1057238583E-02       4    7    1        -0.5693630385E-01      0.1563625709E+00
          0                 3           1             4    7     1       0.7199400807E-04       4    7    1         0.3985541566E-02      0.1092185563E-01

    ------------------------------------------------
       NWT REQUIRED            3 OUTER ITERATIONS 
       AND A TOTAL OF          5 INNER ITERATIONS.
    ------------------------------------------------

 NO OUTPUT CONTROL FOR STRESS PERIOD   16   TIME STEP   13
 
 SOLVING FOR HEAD 
                                                   Max.-Head-Change                         Max.-Flux-Residual
  Residual-Control   Outer-Iter.   Inner-Iter.     Column Row Layer    Maximum-Head-Change  Column Row Layer    Maximum-Flux-Residual          L2-NORM 
          0                 1           2             4    7     1       0.1078079280E-01       4    7    1         0.5647249103E+00      0.1549985576E+01
          0                 2           2             4    7     1      -0.1048679344E-02       4    7    1        -0.5647263775E-01      0.1547762986E+00
          0                 3           1             4    7     1       0.7141115588E-04       4    7    1         0.3953084964E-02      0.1081379740E-01

    ------------------------------------------------
       NWT REQUIRED            3 OUTER ITERATIONS 
       AND A TOTAL OF          5 INNER ITERATIONS.
    ------------------------------------------------

 NO OUTPUT CONTROL FOR STRESS PERIOD   16   TIME STEP   14
 
 SOLVING FOR HEAD 
                                                   Max.-Head-Change                         Max.-Flux-Residual
  Residual-Control   Outer-Iter.   Inner-Iter.     Column Row Layer    Maximum-Head-Change  Column Row Layer    Maximum-Flux-Residual          L2-NORM 
          0                 1           2             4    7     1       0.1069392803E-01       4    7    1         0.5601479880E+00      0.1534762903E+01
          0                 2           2             4    7     1      -0.1040229726E-02       4    7    1        -0.5601494256E-01      0.1532849728E+00
          0                 3           1             4    7     1       0.7083576919E-04       4    7    1         0.3921046326E-02      0.1071245504E-01

    ------------------------------------------------
       NWT REQUIRED            3 OUTER ITERATIONS 
       AND A TOTAL OF          5 INNER ITERATIONS.
    ------------------------------------------------

 NO OUTPUT CONTROL FOR STRESS PERIOD   16   TIME STEP   15
 
 SOLVING FOR HEAD 
                                                   Max.-Head-Change                         Max.-Flux-Residual
  Residual-Control   Outer-Iter.   Inner-Iter.     Column Row Layer    Maximum-Head-Change  Column Row Layer    Maximum-Flux-Residual          L2-NORM 
          0                 1           2             4    7     1       0.1060843191E-01       4    7    1         0.5556441609E+00      0.1520413395E+01
          0                 2           2             4    7     1      -0.1031913242E-02       4    7    1        -0.5556455697E-01      0.1518760035E+00
          0                 3           1             4    7     1       0.7026944757E-04       4    7    1         0.3889519340E-02      0.1061599795E-01

    ------------------------------------------------
       NWT REQUIRED            3 OUTER ITERATIONS 
       AND A TOTAL OF          5 INNER ITERATIONS.
    ------------------------------------------------

 NO OUTPUT CONTROL FOR STRESS PERIOD   16   TIME STEP   16
 
 SOLVING FOR HEAD 
                                                   Max.-Head-Change                         Max.-Flux-Residual
  Residual-Control   Outer-Iter.   Inner-Iter.     Column Row Layer    Maximum-Head-Change  Column Row Layer    Maximum-Flux-Residual          L2-NORM 
          0                 1           2             4    7     1       0.1052400017E-01       4    7    1         0.5511966307E+00      0.1506825112E+01
          0                 2           2             4    7     1      -0.1023700295E-02       4    7    1        -0.5511980114E-01      0.1505398577E+00
          0                 3           1             4    7     1       0.6971017691E-04       4    7    1         0.3858386436E-02      0.1052460459E-01

    ------------------------------------------------
       NWT REQUIRED            3 OUTER ITERATIONS 
       AND A TOTAL OF          5 INNER ITERATIONS.
    ------------------------------------------------

 NO OUTPUT CONTROL FOR STRESS PERIOD   16   TIME STEP   17
 
 SOLVING FOR HEAD 
                                                   Max.-Head-Change                         Max.-Flux-Residual
  Residual-Control   Outer-Iter.   Inner-Iter.     Column Row Layer    Maximum-Head-Change  Column Row Layer    Maximum-Flux-Residual          L2-NORM 
          0                 1           2             4    7     1       0.1044060974E-01       4    7    1         0.5468042868E+00      0.1493908627E+01
          0                 2           2             4    7     1      -0.1015588640E-02       4    7    1        -0.5468056401E-01      0.1492675209E+00
          0                 3           1             4    7     1       0.6915780362E-04       4    7    1         0.3827639856E-02      0.1043724962E-01

    ------------------------------------------------
       NWT REQUIRED            3 OUTER ITERATIONS 
       AND A TOTAL OF          5 INNER ITERATIONS.
    ------------------------------------------------

 NO OUTPUT CONTROL FOR STRESS PERIOD   16   TIME STEP   18
 
 SOLVING FOR HEAD 
                                                   Max.-Head-Change                         Max.-Flux-Residual
  Residual-Control   Outer-Iter.   Inner-Iter.     Column Row Layer    Maximum-Head-Change  Column Row Layer    Maximum-Flux-Residual          L2-NORM 
          0                 1           2             4    7     1       0.1035850303E-01       4    7    1         0.5424805992E+00      0.1481575673E+01
          0                 2           2             4    7     1      -0.1007601856E-02       4    7    1        -0.5424819261E-01      0.1480511644E+00
          0                 3           1             4    7     1       0.6861393341E-04       4    7    1         0.3797373870E-02      0.1035406050E-01

    ------------------------------------------------
       NWT REQUIRED            3 OUTER ITERATIONS 
       AND A TOTAL OF          5 INNER ITERATIONS.
    ------------------------------------------------

 NO OUTPUT CONTROL FOR STRESS PERIOD   16   TIME STEP   19
 
 SOLVING FOR HEAD 
                                                   Max.-Head-Change                         Max.-Flux-Residual
  Residual-Control   Outer-Iter.   Inner-Iter.     Column Row Layer    Maximum-Head-Change  Column Row Layer    Maximum-Flux-Residual          L2-NORM 
          0                 1           2             4    7     1       0.1027738301E-01       4    7    1         0.5382088035E+00      0.1469773621E+01
          0                 2           2             4    7     1      -0.9997110516E-03       4    7    1        -0.5382101043E-01      0.1468845965E+00
          0                 3           1             4    7     1       0.6807659953E-04       4    7    1         0.3767471132E-02      0.1027261707E-01

    ------------------------------------------------
       NWT REQUIRED            3 OUTER ITERATIONS 
       AND A TOTAL OF          5 INNER ITERATIONS.
    ------------------------------------------------

 NO OUTPUT CONTROL FOR STRESS PERIOD   16   TIME STEP   20
 
 SOLVING FOR HEAD 
                                                   Max.-Head-Change                         Max.-Flux-Residual
  Residual-Control   Outer-Iter.   Inner-Iter.     Column Row Layer    Maximum-Head-Change  Column Row Layer    Maximum-Flux-Residual          L2-NORM 
          0                 1           2             4    7     1       0.1019735868E-01       4    7    1         0.5339955000E+00      0.1458431398E+01
          0                 2           2             4    7     1      -0.9919268291E-03       4    7    1        -0.5339967757E-01      0.1457635366E+00
          0                 3           1             4    7     1       0.6754652300E-04       4    7    1         0.3737977827E-02      0.1019594769E-01

    ------------------------------------------------
       NWT REQUIRED            3 OUTER ITERATIONS 
       AND A TOTAL OF          5 INNER ITERATIONS.
    ------------------------------------------------

 NO OUTPUT CONTROL FOR STRESS PERIOD   16   TIME STEP   21
 
 SOLVING FOR HEAD 
                                                   Max.-Head-Change                         Max.-Flux-Residual
  Residual-Control   Outer-Iter.   Inner-Iter.     Column Row Layer    Maximum-Head-Change  Column Row Layer    Maximum-Flux-Residual          L2-NORM 
          0                 1           2             4    7     1       0.1011841015E-01       4    7    1         0.5298390061E+00      0.1447506977E+01
          0                 2           2             4    7     1      -0.9842472542E-03       4    7    1        -0.5298402574E-01      0.1446820845E+00
          0                 3           1             4    7     1       0.6702357305E-04       4    7    1         0.3708882219E-02      0.1012140934E-01

    ------------------------------------------------
       NWT REQUIRED            3 OUTER ITERATIONS 
       AND A TOTAL OF          5 INNER ITERATIONS.
    ------------------------------------------------

 NO OUTPUT CONTROL FOR STRESS PERIOD   16   TIME STEP   22
 
 SOLVING FOR HEAD 
                                                   Max.-Head-Change                         Max.-Flux-Residual
  Residual-Control   Outer-Iter.   Inner-Iter.     Column Row Layer    Maximum-Head-Change  Column Row Layer    Maximum-Flux-Residual          L2-NORM 
          0                 1           2             4    7     1       0.1004050722E-01       4    7    1         0.5257382908E+00      0.1436950065E+01
          0                 2           2             4    7     1      -0.9766693868E-03       4    7    1        -0.5257395180E-01      0.1436355972E+00
          0                 3           1             4    7     1       0.6650754863E-04       4    7    1         0.3680177057E-02      0.1004912504E-01

    ------------------------------------------------
       NWT REQUIRED            3 OUTER ITERATIONS 
       AND A TOTAL OF          5 INNER ITERATIONS.
    ------------------------------------------------

 NO OUTPUT CONTROL FOR STRESS PERIOD   16   TIME STEP   23
 
 SOLVING FOR HEAD 
                                                   Max.-Head-Change                         Max.-Flux-Residual
  Residual-Control   Outer-Iter.   Inner-Iter.     Column Row Layer    Maximum-Head-Change  Column Row Layer    Maximum-Flux-Residual          L2-NORM 
          0                 1           2             4    7     1       0.9963627336E-02       4    7    1         0.5216917876E+00      0.1426729755E+01
          0                 2           2             4    7     1      -0.9691910364E-03       4    7    1        -0.5216929915E-01      0.1426214958E+00
          0                 3           1             4    7     1       0.6599830077E-04       4    7    1         0.3651851383E-02      0.9978714000E-02

    ------------------------------------------------
       NWT REQUIRED            3 OUTER ITERATIONS 
       AND A TOTAL OF          5 INNER ITERATIONS.
    ------------------------------------------------

 NO OUTPUT CONTROL FOR STRESS PERIOD   16   TIME STEP   24
 
 SOLVING FOR HEAD 
                                                   Max.-Head-Change                         Max.-Flux-Residual
  Residual-Control   Outer-Iter.   Inner-Iter.     Column Row Layer    Maximum-Head-Change  Column Row Layer    Maximum-Flux-Residual          L2-NORM 
          0                 1           2             4    7     1       0.9887611766E-02       4    7    1         0.5176909942E+00      0.1416811150E+01
          0                 2           2             4    7     1      -0.9617967604E-03       4    7    1        -0.5176921753E-01      0.1416365799E+00
          0                 3           1             4    7     1       0.6549477862E-04       4    7    1         0.3623845680E-02      0.9910326658E-02

    ------------------------------------------------
       NWT REQUIRED            3 OUTER ITERATIONS 
       AND A TOTAL OF          5 INNER ITERATIONS.
    ------------------------------------------------

 NO OUTPUT CONTROL FOR STRESS PERIOD   16   TIME STEP   25
 
 SOLVING FOR HEAD 
                                                   Max.-Head-Change                         Max.-Flux-Residual
  Residual-Control   Outer-Iter.   Inner-Iter.     Column Row Layer    Maximum-Head-Change  Column Row Layer    Maximum-Flux-Residual          L2-NORM 
          0                 1           2             4    7     1       0.9812578570E-02       4    7    1         0.5137423479E+00      0.1407161047E+01
          0                 2           2             4    7     1      -0.9544980433E-03       4    7    1        -0.5137435068E-01      0.1406776094E+00
          0                 3           1             4    7     1       0.6499776297E-04       4    7    1         0.3596205001E-02      0.9843800604E-02

    ------------------------------------------------
       NWT REQUIRED            3 OUTER ITERATIONS 
       AND A TOTAL OF          5 INNER ITERATIONS.
    ------------------------------------------------

 NO OUTPUT CONTROL FOR STRESS PERIOD   16   TIME STEP   26
 
 SOLVING FOR HEAD 
                                                   Max.-Head-Change                         Max.-Flux-Residual
  Residual-Control   Outer-Iter.   Inner-Iter.     Column Row Layer    Maximum-Head-Change  Column Row Layer    Maximum-Flux-Residual          L2-NORM 
          0                 1           2             4    7     1       0.9738641812E-02       4    7    1         0.5098519706E+00      0.1397769033E+01
          0                 2           2             4    7     1      -0.9473059809E-03       4    7    1        -0.5098531079E-01      0.1397436604E+00
          0                 3           1             4    7     1       0.6450801083E-04       4    7    1         0.3568972212E-02      0.9779052841E-02

    ------------------------------------------------
       NWT REQUIRED            3 OUTER ITERATIONS 
       AND A TOTAL OF          5 INNER ITERATIONS.
    ------------------------------------------------

 NO OUTPUT CONTROL FOR STRESS PERIOD   16   TIME STEP   27
 
 SOLVING FOR HEAD 
                                                   Max.-Head-Change                         Max.-Flux-Residual
  Residual-Control   Outer-Iter.   Inner-Iter.     Column Row Layer    Maximum-Head-Change  Column Row Layer    Maximum-Flux-Residual          L2-NORM 
          0                 1           2             4    7     1       0.9665503171E-02       4    7    1         0.5060037729E+00      0.1388599813E+01
          0                 2           2             4    7     1      -0.9401915543E-03       4    7    1        -0.5060048892E-01      0.1388310927E+00
          0                 3           1             4    7     1       0.6402354478E-04       4    7    1         0.3542034689E-02      0.9715509068E-02

    ------------------------------------------------
       NWT REQUIRED            3 OUTER ITERATIONS 
       AND A TOTAL OF          5 INNER ITERATIONS.
    ------------------------------------------------

 NO OUTPUT CONTROL FOR STRESS PERIOD   16   TIME STEP   28
 
 SOLVING FOR HEAD 
                                                   Max.-Head-Change                         Max.-Flux-Residual
  Residual-Control   Outer-Iter.   Inner-Iter.     Column Row Layer    Maximum-Head-Change  Column Row Layer    Maximum-Flux-Residual          L2-NORM 
          0                 1           2             4    7     1       0.9593285512E-02       4    7    1         0.5022042908E+00      0.1379642509E+01
          0                 2           2             4    7     1      -0.9331667146E-03       4    7    1        -0.5022053864E-01      0.1379389582E+00
          0                 3           1             4    7     1       0.6354517982E-04       4    7    1         0.3515438184E-02      0.9652403522E-02

    ------------------------------------------------
       NWT REQUIRED            3 OUTER ITERATIONS 
       AND A TOTAL OF          5 INNER ITERATIONS.
    ------------------------------------------------

 NO OUTPUT CONTROL FOR STRESS PERIOD   16   TIME STEP   29
 
 SOLVING FOR HEAD 
                                                   Max.-Head-Change                         Max.-Flux-Residual
  Residual-Control   Outer-Iter.   Inner-Iter.     Column Row Layer    Maximum-Head-Change  Column Row Layer    Maximum-Flux-Residual          L2-NORM 
          0                 1           2             4    7     1       0.9521942379E-02       4    7    1         0.4984525602E+00      0.1359373827E+01
          0                 2           2             4    7     1      -0.9262269439E-03       4    7    1        -0.4984536359E-01      0.1359347959E+00
          0                 3           1             4    7     1       0.6307260720E-04       4    7    1         0.3489175931E-02      0.9515230840E-02

    ------------------------------------------------
       NWT REQUIRED            3 OUTER ITERATIONS 
       AND A TOTAL OF          5 INNER ITERATIONS.
    ------------------------------------------------

 NO OUTPUT CONTROL FOR STRESS PERIOD   16   TIME STEP   30



 STREAM LISTING     PERIOD     16   STEP       30

 LAYER ROW COL. STREAM  RCH.  FLOW INTO     FLOW TO   FLOW OUT OF   OVRLND.     DIRECT     STREAM       STREAM     STREAM     STREAM   STREAMBED  STREAMBED
                SEG.NO.  NO.  STRM. RCH.    AQUIFER    STRM. RCH.    RUNOFF     PRECIP       ET          HEAD       DEPTH      WIDTH   CONDCTNC.   GRADIENT

   1    1    1     1     1    3.3171E+01  2.7949E-01   3.2891E+01  0.000E+00  0.000E+00  0.000E+00  1.09432E+03  1.277E+00  1.452E+01  6.535E-02  1.426E+00
   1    2    2     1     2    3.2891E+01  4.3266E-01   3.2458E+01  0.000E+00  0.000E+00  0.000E+00  1.08933E+03  1.274E+00  1.446E+01  1.012E-01  1.425E+00
   1    3    3     1     3    3.2458E+01  3.6882E-01   3.2090E+01  0.000E+00  0.000E+00  0.000E+00  1.08369E+03  1.270E+00  1.439E+01  8.637E-02  1.423E+00
   1    3    4     1     4    3.2090E+01  3.3948E-01   3.1750E+01  0.000E+00  0.000E+00  0.000E+00  1.07868E+03  1.267E+00  1.433E+01  7.955E-02  1.422E+00
   1    4    5     2     1    2.9750E+01  3.3819E-01   2.9412E+01  0.000E+00  0.000E+00  0.000E+00  1.07327E+03  1.336E+00  1.200E+01  7.800E-02  1.445E+00
   1    5    6     2     2    2.9412E+01  2.5966E-01   2.9152E+01  0.000E+00  0.000E+00  0.000E+00  1.06784E+03  1.328E+00  1.200E+01  6.000E-02  1.443E+00
   1    6    6     2     3    2.9152E+01  2.5924E-01   2.8893E+01  0.000E+00  0.000E+00  0.000E+00  1.06311E+03  1.321E+00  1.200E+01  6.000E-02  1.440E+00
   1    7    6     2     4    2.8893E+01  2.5881E-01   2.8634E+01  0.000E+00  0.000E+00  0.000E+00  1.05839E+03  1.314E+00  1.200E+01  6.000E-02  1.438E+00
   1    8    6     2     5    2.8634E+01  2.5839E-01   2.8376E+01  0.000E+00  0.000E+00  0.000E+00  1.05367E+03  1.306E+00  1.200E+01  6.000E-02  1.435E+00
   1    3    5     3     1    2.0000E+00  2.8252E-01   1.7175E+00  0.000E+00  0.000E+00  0.000E+00  1.07555E+03  1.909E+00  9.636E+00  7.227E-02  1.955E+00
   1    3    6     3     2    1.7175E+00  2.4905E-01   1.4684E+00  0.000E+00  0.000E+00  0.000E+00  1.07264E+03  1.727E+00  8.909E+00  6.682E-02  1.864E+00
   1    3    7     3     3    1.4684E+00  1.9718E-01   1.2712E+00  0.000E+00  0.000E+00  0.000E+00  1.06987E+03  1.555E+00  8.218E+00  5.547E-02  1.777E+00
   1    4    8     3     4    1.2712E+00  2.2567E-01   1.0456E+00  0.000E+00  0.000E+00  0.000E+00  1.06682E+03  1.364E+00  7.455E+00  6.709E-02  1.682E+00
   1    5    8     3     5    1.0456E+00  1.5790E-01   8.8768E-01  0.000E+00  0.000E+00  0.000E+00  1.06362E+03  1.164E+00  6.655E+00  4.991E-02  1.582E+00
   1    6    8     3     6    8.8768E-01  5.5980E-02   8.3170E-01  0.000E+00  0.000E+00  0.000E+00  1.06158E+03  1.036E+00  6.145E+00  1.844E-02  1.518E+00
   1    5   10     4     1    1.0000E+01  9.0919E-02   9.9091E+00  0.000E+00  0.000E+00  0.000E+00  1.07836E+03  6.368E-01  1.000E+01  2.500E-02  1.212E+00
   1    5    9     4     2    9.9091E+00  1.8158E-01   9.7275E+00  0.000E+00  0.000E+00  0.000E+00  1.07154E+03  6.315E-01  1.000E+01  5.000E-02  1.211E+00
   1    6    8     4     3    9.7275E+00  1.2689E-01   9.6006E+00  0.000E+00  0.000E+00  0.000E+00  1.06381E+03  6.256E-01  1.000E+01  3.500E-02  1.209E+00
   1    6    8     5     1    1.0432E+01  2.2686E-01   1.0205E+01  0.000E+00  0.000E+00  0.000E+00  1.05868E+03  6.790E-01  1.542E+01  6.166E-02  1.226E+00
   1    7    7     5     2    1.0205E+01  2.7894E-01   9.9265E+00  0.000E+00  0.000E+00  0.000E+00  1.05417E+03  6.732E-01  1.519E+01  7.594E-02  1.224E+00
   1    8    7     5     3    9.9265E+00  1.9221E-01   9.7343E+00  0.000E+00  0.000E+00  0.000E+00  1.04992E+03  6.676E-01  1.497E+01  5.241E-02  1.223E+00
   1    8    6     5     4    9.7343E+00  1.3577E-01   9.5985E+00  0.000E+00  0.000E+00  0.000E+00  1.04691E+03  6.637E-01  1.482E+01  3.706E-02  1.221E+00
   1    9    6     6     1    3.7974E+01  2.7395E-01   3.7700E+01  0.000E+00  0.000E+00  0.000E+00  1.04429E+03  1.566E+00  1.200E+01  6.000E-02  1.522E+00
   1   10    7     6     2    3.7700E+01  2.7354E-01   3.7427E+01  0.000E+00  0.000E+00  0.000E+00  1.03974E+03  1.559E+00  1.200E+01  6.000E-02  1.520E+00
   1   11    7     6     3    3.7427E+01  2.7313E-01   3.7154E+01  0.000E+00  0.000E+00  0.000E+00  1.03519E+03  1.552E+00  1.200E+01  6.000E-02  1.517E+00
   1   12    7     6     4    3.7154E+01  2.7272E-01   3.6881E+01  0.000E+00  0.000E+00  0.000E+00  1.03064E+03  1.545E+00  1.200E+01  6.000E-02  1.515E+00
   1   13    7     6     5    3.6881E+01  1.6404E-02   3.6865E+01  0.000E+00  0.000E+00  0.000E+00  1.02745E+03  1.542E+00  1.200E+01  2.400E-02  2.278E-01
   1   14    9     7     1    1.5000E+02  1.3696E+00   1.4863E+02  0.000E+00  0.000E+00  0.000E+00  1.03987E+03  2.288E+00  5.529E+01  5.593E-01  8.163E-01
   1   13    8     7     2    1.4863E+02  1.9328E+00   1.4670E+02  0.000E+00  0.000E+00  0.000E+00  1.03478E+03  2.279E+00  5.525E+01  6.148E-01  1.048E+00
   1   13    7     7     3    1.4670E+02  1.6313E+00   1.4507E+02  0.000E+00  0.000E+00  0.000E+00  1.02969E+03  2.269E+00  5.521E+01  5.584E-01  9.738E-01
   1   13    6     8     1    1.8193E+02  1.1312E+00   1.8080E+02  0.000E+00  0.000E+00  0.000E+00  1.02490E+03  3.025E+00  4.386E+01  4.469E-01  8.437E-01
   1   13    5     8     2    1.8080E+02  3.5211E-01   1.8045E+02  0.000E+00  0.000E+00  0.000E+00  1.01865E+03  3.020E+00  4.379E+01  4.462E-01  2.630E-01
   1   13    4     8     3    1.8045E+02 -1.9256E+00   1.8237E+02  0.000E+00  0.000E+00  0.000E+00  1.01240E+03  3.025E+00  4.386E+01  4.470E+00 -1.436E-01
   1   13    3     8     4    1.8237E+02 -3.4125E+00   1.8579E+02  0.000E+00  0.000E+00  0.000E+00  1.00617E+03  3.042E+00  4.410E+01  4.494E+00 -2.531E-01
   1   13    2     8     5    1.8579E+02 -2.5142E+00   1.8830E+02  0.000E+00  0.000E+00  0.000E+00  9.99935E+02  3.060E+00  4.437E+01  4.521E+00 -1.854E-01
   1   13    1     8     6    1.8830E+02 -1.9249E+00   1.9022E+02  0.000E+00  0.000E+00  0.000E+00  9.94948E+02  3.073E+00  4.457E+01  2.725E+00 -2.355E-01
   1    8    6     9     1    0.0000E+00  0.0000E+00   0.0000E+00  0.000E+00  0.000E+00  0.000E+00  1.07875E+03  0.000E+00  4.000E+00  0.000E+00  1.000E+00
   1    8    5     9     2    0.0000E+00  0.0000E+00   0.0000E+00  0.000E+00  0.000E+00  0.000E+00  1.07825E+03  0.000E+00  4.000E+00  0.000E+00  1.000E+00





UNSATURATED ZONE PACKAGE VOLUMETRIC BUDGET FOR  TIME STEP    30 STRESS PERIOD   16
  ------------------------------------------------------------------------------



     CUMULATIVE VOLUMES      L**3       RATES FOR THIS TIME STEP      L**3/T
     ------------------                 ------------------------

           IN:                                      IN:
           ---                                      ---
        INFILTRATION =   437396730.4803          INFILTRATION =           0.8475

          OUT:                                     OUT:
          ----                                     ----
              UZF ET =   435957022.6945                UZF ET =           0.7500
        UZF RECHARGE =       73224.0000          UZF RECHARGE =       0.0000E+00

            IN - OUT =     1366483.7858              IN - OUT =       9.7500E-02

          STORAGE:                                 STORAGE:
          --------                                 --------
      STORAGE CHANGE =     1366483.7199        STORAGE CHANGE =       9.7500E-02

 PERCENT DISCREPANCY IS DIFFERENCE BETWEEN IN-OUT MINUS CHANGE IN STORAGE
 DIVIDED BY THE AVERAGE OF IN AND OUT TIMES 100

 PERCENT DISCREPANCY =           0.00     PERCENT DISCREPANCY =           0.00






1
  VOLUMETRIC BUDGET FOR AGRICULTURAL FIELDS AT  END OF TIME STEP   30, STRESS PERIOD  16
  ------------------------------------------------------------------------------

     CUMULATIVE VOLUMES      L**3       RATES FOR THIS TIME STEP      L**3/T
     ------------------                 ------------------------

           IN:                                      IN:
           ---                                      ---
               AG WELLS  =   403889344.0000                 AG WELLS  =           0.0000
      DIVERSION SEGMENTS =           0.0000        DIVERSION SEGMENTS =           0.0000
       IRRIGATION PONDS  =           0.0000         IRRIGATION PONDS  =           0.0000
           GW IRRIGATION =           0.0000             GW IRRIGATION =           0.0000
           SW IRRIGATION =           0.0000             SW IRRIGATION =           0.0000
        SYSTEM LOSSES GW =           0.0000          SYSTEM LOSSES GW =           0.0000
        SYSTEM LOSSES SW =           0.0000          SYSTEM LOSSES SW =           0.0000

                TOTAL IN =   403889344.0000                  TOTAL IN =           0.0000

          OUT:                                     OUT:
          ----                                     ----
               AG WELLS  =           0.0000                 AG WELLS  =           0.0000
      DIVERSION SEGMENTS =           0.0000        DIVERSION SEGMENTS =           0.0000
       IRRIGATION PONDS  =           0.0000         IRRIGATION PONDS  =           0.0000
           GW IRRIGATION =   403889344.0000             GW IRRIGATION =           0.0000
           SW IRRIGATION =           0.0000             SW IRRIGATION =           0.0000
        SYSTEM LOSSES GW =           0.0000          SYSTEM LOSSES GW =           0.0000
        SYSTEM LOSSES SW =           0.0000          SYSTEM LOSSES SW =           0.0000

               TOTAL OUT =   403889344.0000                 TOTAL OUT =           0.0000

                IN - OUT =           0.0000                  IN - OUT =           0.0000

     PERCENT DISCREPANCY =           0.00         PERCENT DISCREPANCY =           0.00



1
  VOLUMETRIC BUDGET FOR ENTIRE MODEL AT END OF TIME STEP   30, STRESS PERIOD  16
  ------------------------------------------------------------------------------

     CUMULATIVE VOLUMES      L**3       RATES FOR THIS TIME STEP      L**3/T
     ------------------                 ------------------------

           IN:                                      IN:
           ---                                      ---
             STORAGE     =   560765184.0000               STORAGE     =           2.9557
       CONSTANT HEAD     =           0.0000         CONSTANT HEAD     =           0.0000
     HEAD DEP BOUNDS     =    11383934.0000       HEAD DEP BOUNDS     =           0.2881
      STREAM LEAKAGE     =   466076128.0000        STREAM LEAKAGE     =          12.7230
        UZF RECHARGE     =       73223.9531          UZF RECHARGE     =           0.0000
               GW ET     =           0.0000                 GW ET     =           0.0000
     SURFACE LEAKAGE     =           0.0000       SURFACE LEAKAGE     =           0.0000
           AG WELLS      =           0.0000             AG WELLS      =           0.0000

                TOTAL IN =  1038298496.0000                  TOTAL IN =          15.9667

          OUT:                                     OUT:
          ----                                     ----
             STORAGE     =   221262896.0000               STORAGE     =           5.8994
       CONSTANT HEAD     =           0.0000         CONSTANT HEAD     =           0.0000
     HEAD DEP BOUNDS     =    11424078.0000       HEAD DEP BOUNDS     =           0.2909
      STREAM LEAKAGE     =   401728512.0000        STREAM LEAKAGE     =           9.7772
        UZF RECHARGE     =           0.0000          UZF RECHARGE     =           0.0000
               GW ET     =           0.0000                 GW ET     =           0.0000
     SURFACE LEAKAGE     =           0.0000       SURFACE LEAKAGE     =           0.0000
           AG WELLS      =   403889344.0000             AG WELLS      =           0.0000

               TOTAL OUT =  1038304832.0000                 TOTAL OUT =          15.9676

                IN - OUT =       -6336.0000                  IN - OUT =      -8.3923E-04

     PERCENT DISCREPANCY =          -0.00         PERCENT DISCREPANCY =          -0.01






         TIME SUMMARY AT END OF TIME STEP   30 IN STRESS PERIOD   16
                    SECONDS     MINUTES      HOURS       DAYS        YEARS
                    -----------------------------------------------------------
   TIME STEP LENGTH  87667.      1461.1      24.352      1.0147     2.77799E-03
 STRESS PERIOD TIME 2.63000E+06  43833.      730.56      30.440     8.33397E-02
         TOTAL TIME 3.95364E+07 6.58940E+05  10982.      457.60      1.2528    
1
1
                            STRESS PERIOD NO.   17, LENGTH =   2630000.    
                            -----------------------------------------------

                              NUMBER OF TIME STEPS =    30

                               MULTIPLIER FOR DELT =     1.000

                            INITIAL TIME STEP SIZE =   87666.66    

 REUSING NON-PARAMETER GHB CELLS FROM LAST STRESS PERIOD

      2 GHB CELLS

 REUSING STREAM SEGMENT DATA FROM LAST STRESS PERIOD



            AREAL INFILTRATION RATE
 READING ON UNIT   19 WITH FORMAT: (FREE)              

            1           2           3           4           5           6           7           8           9          10
 ........................................................................................................................
   1   1.0000E-10  2.0000E-10   0.000       0.000       0.000       0.000       0.000       0.000       0.000       0.000    
   2   2.0000E-10  1.0000E-10  2.0000E-10   0.000       0.000      8.0000E-10  8.0000E-10  5.0000E-10   0.000       0.000    
   3    0.000      5.0000E-10  1.0000E-10  1.0000E-10  8.0000E-10  8.0000E-10  5.0000E-10  5.0000E-10   0.000       0.000    
   4   8.0000E-10  5.0000E-10  1.0000E-10  1.0000E-10  1.0000E-10  1.0000E-10  1.0000E-10  1.0000E-10  2.0000E-10   0.000    
   5   8.0000E-10  5.0000E-10  1.0000E-10  1.0000E-10  1.0000E-10  1.0000E-10  1.0000E-10  1.0000E-10  1.0000E-10  1.0000E-10
   6   8.0000E-10  5.0000E-10  5.0000E-10  2.0000E-10  2.0000E-10  1.0000E-10  1.0000E-10  1.0000E-10  1.0000E-10  5.0000E-10
   7   8.0000E-10  5.0000E-10  5.0000E-10  2.0000E-10  2.0000E-10  1.0000E-10  1.0000E-10  2.0000E-10  2.0000E-10   0.000    
   8    0.000      5.0000E-10  5.0000E-10  2.0000E-10  2.0000E-10  1.0000E-10  1.0000E-10  2.0000E-10  5.0000E-10   0.000    
   9    0.000      5.0000E-10  5.0000E-10  2.0000E-10  2.0000E-10  1.0000E-10  1.0000E-10  2.0000E-10  5.0000E-10   0.000    
  10    0.000      5.0000E-10  5.0000E-10  2.0000E-10  2.0000E-10  1.0000E-10  1.0000E-10  2.0000E-10  5.0000E-10  8.0000E-10
  11    0.000      1.0000E-10  1.0000E-10  1.0000E-10  1.0000E-10  1.0000E-10  1.0000E-10  2.0000E-10  5.0000E-10   0.000    
  12   1.0000E-10  1.0000E-10  1.0000E-10  1.0000E-10  1.0000E-10  1.0000E-10  1.0000E-10  1.0000E-10  2.0000E-10   0.000    
  13   1.0000E-10  1.0000E-10  2.0000E-10  2.0000E-10  2.0000E-10  2.0000E-10  2.0000E-10  1.0000E-10  1.0000E-10   0.000    
  14    0.000      2.0000E-10  5.0000E-10  5.0000E-10  5.0000E-10  5.0000E-10  5.0000E-10  2.0000E-10  1.0000E-10   0.000    
  15    0.000       0.000      8.0000E-10  8.0000E-10  8.0000E-10  8.0000E-10   0.000       0.000       0.000       0.000    

                  ET RATE =  2.500000E-08

 USING ET EXTINCTION DEPTH FROM PREVIOUS STRESS PERIOD. CURRENT PERIOD IS:      17

 USING EXTINCTION WATER CONTENT FROM PREVIOUS STRESS PERIOD. CURRENT PERIOD IS:      17

 USING AIR ENTRY PRESSURE FROM PREVIOUS STRESS PERIOD. CURRENT PERIOD IS:      17

 USING ROOT PRESSURE HEAD FROM PREVIOUS STRESS PERIOD. CURRENT PERIOD IS:      17

 USING ROOT ACTIVITY FROM PREVIOUS STRESS PERIOD. CURRENT PERIOD IS:      17

 PROCESSING AG STRESS PERIOD DATA

 READING AG STRESS PERIOD DATA

 READING IRRIGATION SEGMENT

 READING IRRIGATION WELL

 READING SUPPLEMENTAL WELL

 NO IRRPOND OR REUSING IRRPOND DATA FROM LAST STRESS PERIOD

 END PROCESSING AG STRESS PERIOD DATA OPTIONS
 
 SOLVING FOR HEAD 
                                                   Max.-Head-Change                         Max.-Flux-Residual
  Residual-Control   Outer-Iter.   Inner-Iter.     Column Row Layer    Maximum-Head-Change  Column Row Layer    Maximum-Flux-Residual          L2-NORM 
          0                 1           2             3    7     1       0.7437114338E-02       6    7    1         0.2629623280E+00      0.1026350493E+01
          0                 2           2             3    7     1      -0.7234284443E-03       6    7    1        -0.2629634522E-01      0.1025000373E+00
          0                 3           1             3    7     1       0.4926285350E-04       6    7    1         0.1840743899E-02      0.7162817904E-02

    ------------------------------------------------
       NWT REQUIRED            3 OUTER ITERATIONS 
       AND A TOTAL OF          5 INNER ITERATIONS.
    ------------------------------------------------

 NO OUTPUT CONTROL FOR STRESS PERIOD   17   TIME STEP    1
 
 SOLVING FOR HEAD 
                                                   Max.-Head-Change                         Max.-Flux-Residual
  Residual-Control   Outer-Iter.   Inner-Iter.     Column Row Layer    Maximum-Head-Change  Column Row Layer    Maximum-Flux-Residual          L2-NORM 
          0                 1           2             3    7     1       0.7295780262E-02       6    7    1         0.2527287940E+00      0.9925303288E+00
          0                 2           2             3    7     1      -0.7096804801E-03       6    7    1        -0.2527298394E-01      0.9913383057E-01
          0                 3           1             3    7     1       0.4832666421E-04       6    7    1         0.1769108645E-02      0.6928651199E-02

    ------------------------------------------------
       NWT REQUIRED            3 OUTER ITERATIONS 
       AND A TOTAL OF          5 INNER ITERATIONS.
    ------------------------------------------------

 NO OUTPUT CONTROL FOR STRESS PERIOD   17   TIME STEP    2
 
 SOLVING FOR HEAD 
                                                   Max.-Head-Change                         Max.-Flux-Residual
  Residual-Control   Outer-Iter.   Inner-Iter.     Column Row Layer    Maximum-Head-Change  Column Row Layer    Maximum-Flux-Residual          L2-NORM 
          0                 1           2             3    7     1       0.7156711476E-02       6    7    1         0.2428910161E+00      0.9609228896E+00
          0                 2           2             3    7     1      -0.6961528670E-03       6    7    1        -0.2428919877E-01      0.9598929769E-01
          0                 3           1             3    7     1       0.4740547906E-04       6    7    1         0.1700243734E-02      0.6710621613E-02

    ------------------------------------------------
       NWT REQUIRED            3 OUTER ITERATIONS 
       AND A TOTAL OF          5 INNER ITERATIONS.
    ------------------------------------------------

 NO OUTPUT CONTROL FOR STRESS PERIOD   17   TIME STEP    3
 
 SOLVING FOR HEAD 
                                                   Max.-Head-Change                         Max.-Flux-Residual
  Residual-Control   Outer-Iter.   Inner-Iter.     Column Row Layer    Maximum-Head-Change  Column Row Layer    Maximum-Flux-Residual          L2-NORM 
          0                 1           2             3    7     1       0.7019923148E-02       6    7    1         0.2334318259E+00      0.9313293931E+00
          0                 2           2             3    7     1      -0.6828470823E-03       6    7    1        -0.2334327280E-01      0.9304178895E-01
          0                 3           1             3    7     1       0.4649940017E-04       6    7    1         0.1634028932E-02      0.6504665106E-02

    ------------------------------------------------
       NWT REQUIRED            3 OUTER ITERATIONS 
       AND A TOTAL OF          5 INNER ITERATIONS.
    ------------------------------------------------

 NO OUTPUT CONTROL FOR STRESS PERIOD   17   TIME STEP    4
 
 SOLVING FOR HEAD 
                                                   Max.-Head-Change                         Max.-Flux-Residual
  Residual-Control   Outer-Iter.   Inner-Iter.     Column Row Layer    Maximum-Head-Change  Column Row Layer    Maximum-Flux-Residual          L2-NORM 
          0                 1           2             3    7     1       0.6885180792E-02       6    7    1         0.2243414655E+00      0.9035850573E+00
          0                 2           2             3    7     1      -0.6697403166E-03       6    7    1        -0.2243423026E-01      0.9027891982E-01
          0                 3           1             3    7     1       0.4560687485E-04       6    7    1         0.1570396002E-02      0.6312491244E-02

    ------------------------------------------------
       NWT REQUIRED            3 OUTER ITERATIONS 
       AND A TOTAL OF          5 INNER ITERATIONS.
    ------------------------------------------------

 NO OUTPUT CONTROL FOR STRESS PERIOD   17   TIME STEP    5
 
 SOLVING FOR HEAD 
                                                   Max.-Head-Change                         Max.-Flux-Residual
  Residual-Control   Outer-Iter.   Inner-Iter.     Column Row Layer    Maximum-Head-Change  Column Row Layer    Maximum-Flux-Residual          L2-NORM 
          0                 1           2             3    7     1       0.6752977373E-02       6    7    1         0.2156170368E+00      0.8775375190E+00
          0                 2           2             3    7     1      -0.6568805213E-03       6    7    1        -0.2156178131E-01      0.8768358668E-01
          0                 3           1             3    7     1       0.4473116718E-04       6    7    1         0.1509324605E-02      0.6131397364E-02

    ------------------------------------------------
       NWT REQUIRED            3 OUTER ITERATIONS 
       AND A TOTAL OF          5 INNER ITERATIONS.
    ------------------------------------------------

 NO OUTPUT CONTROL FOR STRESS PERIOD   17   TIME STEP    6
 
 SOLVING FOR HEAD 
                                                   Max.-Head-Change                         Max.-Flux-Residual
  Residual-Control   Outer-Iter.   Inner-Iter.     Column Row Layer    Maximum-Head-Change  Column Row Layer    Maximum-Flux-Residual          L2-NORM 
          0                 1           2             3    7     1       0.6622821512E-02       6    7    1         0.2072398461E+00      0.8530539448E+00
          0                 2           2             3    7     1      -0.6442198979E-03       6    7    1        -0.2072405657E-01      0.8524370770E-01
          0                 3           1             3    7     1       0.4386902219E-04       6    7    1         0.1450683911E-02      0.5961540473E-02

    ------------------------------------------------
       NWT REQUIRED            3 OUTER ITERATIONS 
       AND A TOTAL OF          5 INNER ITERATIONS.
    ------------------------------------------------

 NO OUTPUT CONTROL FOR STRESS PERIOD   17   TIME STEP    7
 
 SOLVING FOR HEAD 
                                                   Max.-Head-Change                         Max.-Flux-Residual
  Residual-Control   Outer-Iter.   Inner-Iter.     Column Row Layer    Maximum-Head-Change  Column Row Layer    Maximum-Flux-Residual          L2-NORM 
          0                 1           2             3    7     1       0.6495199197E-02       6    7    1         0.1992065629E+00      0.8300025640E+00
          0                 2           2             3    7     1      -0.6318057215E-03       6    7    1        -0.1992072298E-01      0.8294637142E-01
          0                 3           1             3    7     1       0.4302365993E-04       6    7    1         0.1394450565E-02      0.5801491211E-02

    ------------------------------------------------
       NWT REQUIRED            3 OUTER ITERATIONS 
       AND A TOTAL OF          5 INNER ITERATIONS.
    ------------------------------------------------

 NO OUTPUT CONTROL FOR STRESS PERIOD   17   TIME STEP    8
 
 SOLVING FOR HEAD 
                                                   Max.-Head-Change                         Max.-Flux-Residual
  Residual-Control   Outer-Iter.   Inner-Iter.     Column Row Layer    Maximum-Head-Change  Column Row Layer    Maximum-Flux-Residual          L2-NORM 
          0                 1           2             3    7     1       0.6369852376E-02       6    7    1         0.1915054330E+00      0.8082816744E+00
          0                 2           2             3    7     1      -0.6196128894E-03       6    7    1        -0.1915060508E-01      0.8078092462E-01
          0                 3           1             3    7     1       0.4219337081E-04       6    7    1         0.1340542353E-02      0.5650499896E-02

    ------------------------------------------------
       NWT REQUIRED            3 OUTER ITERATIONS 
       AND A TOTAL OF          5 INNER ITERATIONS.
    ------------------------------------------------

 NO OUTPUT CONTROL FOR STRESS PERIOD   17   TIME STEP    9
 
 SOLVING FOR HEAD 
                                                   Max.-Head-Change                         Max.-Flux-Residual
  Residual-Control   Outer-Iter.   Inner-Iter.     Column Row Layer    Maximum-Head-Change  Column Row Layer    Maximum-Flux-Residual          L2-NORM 
          0                 1           2             3    7     1       0.6246771011E-02       6    7    1         0.1841252278E+00      0.7877798326E+00
          0                 2           2             3    7     1      -0.6076404255E-03       6    7    1        -0.1841257999E-01      0.7873623293E-01
          0                 3           1             3    7     1       0.4137808807E-04       6    7    1         0.1288880614E-02      0.5507769067E-02

    ------------------------------------------------
       NWT REQUIRED            3 OUTER ITERATIONS 
       AND A TOTAL OF          5 INNER ITERATIONS.
    ------------------------------------------------

 NO OUTPUT CONTROL FOR STRESS PERIOD   17   TIME STEP   10
 
 SOLVING FOR HEAD 
                                                   Max.-Head-Change                         Max.-Flux-Residual
  Residual-Control   Outer-Iter.   Inner-Iter.     Column Row Layer    Maximum-Head-Change  Column Row Layer    Maximum-Flux-Residual          L2-NORM 
          0                 1           2             3    7     1       0.6125937599E-02       6    7    1         0.1770542493E+00      0.7684187962E+00
          0                 2           2             3    7     1      -0.5958866266E-03       6    7    1        -0.1770547792E-01      0.7680516428E-01
          0                 3           1             3    7     1       0.4057769634E-04       6    7    1         0.1239383492E-02      0.5373091041E-02

    ------------------------------------------------
       NWT REQUIRED            3 OUTER ITERATIONS 
       AND A TOTAL OF          5 INNER ITERATIONS.
    ------------------------------------------------

 NO OUTPUT CONTROL FOR STRESS PERIOD   17   TIME STEP   11
 
 SOLVING FOR HEAD 
                                                   Max.-Head-Change                         Max.-Flux-Residual
  Residual-Control   Outer-Iter.   Inner-Iter.     Column Row Layer    Maximum-Head-Change  Column Row Layer    Maximum-Flux-Residual          L2-NORM 
          0                 1           2             3    7     1       0.6007334614E-02       6    7    1         0.1702809421E+00      0.7500986061E+00
          0                 2           2             3    7     1      -0.5843497878E-03       6    7    1        -0.1702814326E-01      0.7497737417E-01
          0                 3           1             3    7     1       0.3979207835E-04       6    7    1         0.1191970090E-02      0.5245554688E-02

    ------------------------------------------------
       NWT REQUIRED            3 OUTER ITERATIONS 
       AND A TOTAL OF          5 INNER ITERATIONS.
    ------------------------------------------------

 NO OUTPUT CONTROL FOR STRESS PERIOD   17   TIME STEP   12
 
 SOLVING FOR HEAD 
                                                   Max.-Head-Change                         Max.-Flux-Residual
  Residual-Control   Outer-Iter.   Inner-Iter.     Column Row Layer    Maximum-Head-Change  Column Row Layer    Maximum-Flux-Residual          L2-NORM 
          0                 1           2             3    7     1       0.5891183788E-02       6    7    1         0.1637942116E+00      0.7327545084E+00
          0                 2           2             3    7     1      -0.5730514784E-03       6    7    1        -0.1637946656E-01      0.7324688172E-01
          0                 3           1             3    7     1       0.3902270360E-04       6    7    1         0.1146562730E-02      0.5124730127E-02

    ------------------------------------------------
       NWT REQUIRED            3 OUTER ITERATIONS 
       AND A TOTAL OF          5 INNER ITERATIONS.
    ------------------------------------------------

 NO OUTPUT CONTROL FOR STRESS PERIOD   17   TIME STEP   13
 
 SOLVING FOR HEAD 
                                                   Max.-Head-Change                         Max.-Flux-Residual
  Residual-Control   Outer-Iter.   Inner-Iter.     Column Row Layer    Maximum-Head-Change  Column Row Layer    Maximum-Flux-Residual          L2-NORM 
          0                 1           2             3    7     1       0.5776973129E-02       6    7    1         0.1575828818E+00      0.7163183428E+00
          0                 2           2             3    7     1      -0.5619418948E-03       6    7    1        -0.1575833021E-01      0.7160650278E-01
          0                 3           1             3    7     1       0.3826618092E-04       6    7    1         0.1103083189E-02      0.5010239385E-02

    ------------------------------------------------
       NWT REQUIRED            3 OUTER ITERATIONS 
       AND A TOTAL OF          5 INNER ITERATIONS.
    ------------------------------------------------

 NO OUTPUT CONTROL FOR STRESS PERIOD   17   TIME STEP   14
 
 SOLVING FOR HEAD 
                                                   Max.-Head-Change                         Max.-Flux-Residual
  Residual-Control   Outer-Iter.   Inner-Iter.     Column Row Layer    Maximum-Head-Change  Column Row Layer    Maximum-Flux-Residual          L2-NORM 
          0                 1           2             3    7     1       0.5665167518E-02       4    9    1         0.1517776088E+00      0.7007239355E+00
          0                 2           2             3    7     1      -0.5510662572E-03       4    9    1        -0.1517775849E-01      0.7005010308E-01
          0                 3           1             3    7     1       0.3752558895E-04       4    9    1         0.1062443573E-02      0.4901433829E-02

    ------------------------------------------------
       NWT REQUIRED            3 OUTER ITERATIONS 
       AND A TOTAL OF          5 INNER ITERATIONS.
    ------------------------------------------------

 NO OUTPUT CONTROL FOR STRESS PERIOD   17   TIME STEP   15
 
 SOLVING FOR HEAD 
                                                   Max.-Head-Change                         Max.-Flux-Residual
  Residual-Control   Outer-Iter.   Inner-Iter.     Column Row Layer    Maximum-Head-Change  Column Row Layer    Maximum-Flux-Residual          L2-NORM 
          0                 1           2             3    7     1       0.5555734270E-02       3    7    1         0.1474159371E+00      0.6859101924E+00
          0                 2           2             3    7     1      -0.5404213860E-03       3    7    1        -0.1474159178E-01      0.6857108627E-01
          0                 3           1             3    7     1       0.3680071114E-04       3    7    1         0.1031911881E-02      0.4798051007E-02

    ------------------------------------------------
       NWT REQUIRED            3 OUTER ITERATIONS 
       AND A TOTAL OF          5 INNER ITERATIONS.
    ------------------------------------------------

 NO OUTPUT CONTROL FOR STRESS PERIOD   17   TIME STEP   16
 
 SOLVING FOR HEAD 
                                                   Max.-Head-Change                         Max.-Flux-Residual
  Residual-Control   Outer-Iter.   Inner-Iter.     Column Row Layer    Maximum-Head-Change  Column Row Layer    Maximum-Flux-Residual          L2-NORM 
          0                 1           2             3    7     1       0.5448397223E-02       3    7    1         0.1445660172E+00      0.6718274476E+00
          0                 2           2             3    7     1      -0.5299804190E-03       3    7    1        -0.1445659980E-01      0.6716515453E-01
          0                 3           1             3    7     1       0.3608971955E-04       3    7    1         0.1011962449E-02      0.4701739876E-02

    ------------------------------------------------
       NWT REQUIRED            3 OUTER ITERATIONS 
       AND A TOTAL OF          5 INNER ITERATIONS.
    ------------------------------------------------

 NO OUTPUT CONTROL FOR STRESS PERIOD   17   TIME STEP   17
 
 SOLVING FOR HEAD 
                                                   Max.-Head-Change                         Max.-Flux-Residual
  Residual-Control   Outer-Iter.   Inner-Iter.     Column Row Layer    Maximum-Head-Change  Column Row Layer    Maximum-Flux-Residual          L2-NORM 
          0                 1           2             3    7     1       0.5343124950E-02       1    1    1         0.1427994304E+00      0.6584390866E+00
          0                 2           2             3    7     1      -0.5129519997E-03       1    1    1        -0.1427995861E-01      0.6575088860E-01
          0                 3           1             3    7     1       0.3493013412E-04       1    1    1         0.9995973903E-03      0.4601081615E-02

    ------------------------------------------------
       NWT REQUIRED            3 OUTER ITERATIONS 
       AND A TOTAL OF          5 INNER ITERATIONS.
    ------------------------------------------------

 NO OUTPUT CONTROL FOR STRESS PERIOD   17   TIME STEP   18
 
 SOLVING FOR HEAD 
                                                   Max.-Head-Change                         Max.-Flux-Residual
  Residual-Control   Outer-Iter.   Inner-Iter.     Column Row Layer    Maximum-Head-Change  Column Row Layer    Maximum-Flux-Residual          L2-NORM 
          0                 1           2             3    7     1       0.5254787243E-02       1    1    1         0.1426581118E+00      0.6457552651E+00
          0                 2           2             3    7     1      -0.5111484735E-03       1    1    1        -0.1426582667E-01      0.6456153129E-01
          0                 3           1             3    7     1       0.3480731974E-04       1    1    1         0.9986081442E-03      0.4518010082E-02

    ------------------------------------------------
       NWT REQUIRED            3 OUTER ITERATIONS 
       AND A TOTAL OF          5 INNER ITERATIONS.
    ------------------------------------------------

 NO OUTPUT CONTROL FOR STRESS PERIOD   17   TIME STEP   19
 
 SOLVING FOR HEAD 
                                                   Max.-Head-Change                         Max.-Flux-Residual
  Residual-Control   Outer-Iter.   Inner-Iter.     Column Row Layer    Maximum-Head-Change  Column Row Layer    Maximum-Flux-Residual          L2-NORM 
          0                 1           2             3    7     1       0.5161560415E-02       1    1    1         0.1425182382E+00      0.6336788938E+00
          0                 2           2             3    7     1      -0.5020800089E-03       1    1    1        -0.1425183927E-01      0.6335541983E-01
          0                 3           1             3    7     1       0.3418979018E-04       1    1    1         0.9976290495E-03      0.4433690228E-02

    ------------------------------------------------
       NWT REQUIRED            3 OUTER ITERATIONS 
       AND A TOTAL OF          5 INNER ITERATIONS.
    ------------------------------------------------

 NO OUTPUT CONTROL FOR STRESS PERIOD   17   TIME STEP   20
 
 SOLVING FOR HEAD 
                                                   Max.-Head-Change                         Max.-Flux-Residual
  Residual-Control   Outer-Iter.   Inner-Iter.     Column Row Layer    Maximum-Head-Change  Column Row Layer    Maximum-Flux-Residual          L2-NORM 
          0                 1           2             3    7     1       0.5069910354E-02       1    1    1         0.1423777095E+00      0.6221686153E+00
          0                 2           2             3    7     1      -0.4931649221E-03       1    1    1        -0.1423778633E-01      0.6220569630E-01
          0                 3           1             3    7     1       0.3358270585E-04       1    1    1         0.9966453224E-03      0.4353626001E-02

    ------------------------------------------------
       NWT REQUIRED            3 OUTER ITERATIONS 
       AND A TOTAL OF          5 INNER ITERATIONS.
    ------------------------------------------------

 NO OUTPUT CONTROL FOR STRESS PERIOD   17   TIME STEP   21
 
 SOLVING FOR HEAD 
                                                   Max.-Head-Change                         Max.-Flux-Residual
  Residual-Control   Outer-Iter.   Inner-Iter.     Column Row Layer    Maximum-Head-Change  Column Row Layer    Maximum-Flux-Residual          L2-NORM 
          0                 1           2             3    7     1       0.4979815134E-02       1    1    1         0.1422375743E+00      0.6111701264E+00
          0                 2           2             3    7     1      -0.4844010798E-03       1    1    1        -0.1422377276E-01      0.6110709647E-01
          0                 3           1             3    7     1       0.3298592070E-04       1    1    1         0.9956643599E-03      0.4276663556E-02

    ------------------------------------------------
       NWT REQUIRED            3 OUTER ITERATIONS 
       AND A TOTAL OF          5 INNER ITERATIONS.
    ------------------------------------------------

 NO OUTPUT CONTROL FOR STRESS PERIOD   17   TIME STEP   22
 
 SOLVING FOR HEAD 
                                                   Max.-Head-Change                         Max.-Flux-Residual
  Residual-Control   Outer-Iter.   Inner-Iter.     Column Row Layer    Maximum-Head-Change  Column Row Layer    Maximum-Flux-Residual          L2-NORM 
          0                 1           2             3    7     1       0.4891499624E-02       1    1    1         0.1420988785E+00      0.6006717351E+00
          0                 2           2             3    7     1      -0.4758103554E-03       1    1    1        -0.1420990313E-01      0.6005813263E-01
          0                 3           1             3    7     1       0.3240092390E-04       1    1    1         0.9946935052E-03      0.4203292167E-02

    ------------------------------------------------
       NWT REQUIRED            3 OUTER ITERATIONS 
       AND A TOTAL OF          5 INNER ITERATIONS.
    ------------------------------------------------

 NO OUTPUT CONTROL FOR STRESS PERIOD   17   TIME STEP   23
 
 SOLVING FOR HEAD 
                                                   Max.-Head-Change                         Max.-Flux-Residual
  Residual-Control   Outer-Iter.   Inner-Iter.     Column Row Layer    Maximum-Head-Change  Column Row Layer    Maximum-Flux-Residual          L2-NORM 
          0                 1           2             3    7     1       0.4804934911E-02       1    1    1         0.1419595208E+00      0.5906420310E+00
          0                 2           2             3    7     1      -0.4673899381E-03       1    1    1        -0.1419596727E-01      0.5905608245E-01
          0                 3           1             3    7     1       0.3182752491E-04       1    1    1         0.9937180015E-03      0.4133201725E-02

    ------------------------------------------------
       NWT REQUIRED            3 OUTER ITERATIONS 
       AND A TOTAL OF          5 INNER ITERATIONS.
    ------------------------------------------------

 NO OUTPUT CONTROL FOR STRESS PERIOD   17   TIME STEP   24
 
 SOLVING FOR HEAD 
                                                   Max.-Head-Change                         Max.-Flux-Residual
  Residual-Control   Outer-Iter.   Inner-Iter.     Column Row Layer    Maximum-Head-Change  Column Row Layer    Maximum-Flux-Residual          L2-NORM 
          0                 1           2             3    7     1       0.4720093622E-02       1    1    1         0.1418215986E+00      0.5810438338E+00
          0                 2           2             3    7     1      -0.4591371629E-03       1    1    1        -0.1418217503E-01      0.5809710964E-01
          0                 3           1             3    7     1       0.3126554103E-04       1    1    1         0.9927525288E-03      0.4066137722E-02

    ------------------------------------------------
       NWT REQUIRED            3 OUTER ITERATIONS 
       AND A TOTAL OF          5 INNER ITERATIONS.
    ------------------------------------------------

 NO OUTPUT CONTROL FOR STRESS PERIOD   17   TIME STEP   25
 
 SOLVING FOR HEAD 
                                                   Max.-Head-Change                         Max.-Flux-Residual
  Residual-Control   Outer-Iter.   Inner-Iter.     Column Row Layer    Maximum-Head-Change  Column Row Layer    Maximum-Flux-Residual          L2-NORM 
          0                 1           2             3    7     1       0.4636704008E-02       1    1    1         0.1416830113E+00      0.5718540088E+00
          0                 2           2             3    7     1      -0.4510255978E-03       1    1    1        -0.1416831624E-01      0.5717879038E-01
          0                 3           1             3    7     1       0.3071317354E-04       1    1    1         0.9917824132E-03      0.4001882024E-02

    ------------------------------------------------
       NWT REQUIRED            3 OUTER ITERATIONS 
       AND A TOTAL OF          5 INNER ITERATIONS.
    ------------------------------------------------

 NO OUTPUT CONTROL FOR STRESS PERIOD   17   TIME STEP   26
 
 SOLVING FOR HEAD 
                                                   Max.-Head-Change                         Max.-Flux-Residual
  Residual-Control   Outer-Iter.   Inner-Iter.     Column Row Layer    Maximum-Head-Change  Column Row Layer    Maximum-Flux-Residual          L2-NORM 
          0                 1           2             3    7     1       0.4554986789E-02       1    1    1         0.1415448075E+00      0.5630616093E+00
          0                 2           2             3    7     1      -0.4430767121E-03       1    1    1        -0.1415449580E-01      0.5630017661E-01
          0                 3           1             3    7     1       0.3017188402E-04       1    1    1         0.9908149889E-03      0.3940492329E-02

    ------------------------------------------------
       NWT REQUIRED            3 OUTER ITERATIONS 
       AND A TOTAL OF          5 INNER ITERATIONS.
    ------------------------------------------------

 NO OUTPUT CONTROL FOR STRESS PERIOD   17   TIME STEP   27
 
 SOLVING FOR HEAD 
                                                   Max.-Head-Change                         Max.-Flux-Residual
  Residual-Control   Outer-Iter.   Inner-Iter.     Column Row Layer    Maximum-Head-Change  Column Row Layer    Maximum-Flux-Residual          L2-NORM 
          0                 1           2             3    7     1       0.4474909820E-02       1    1    1         0.1414080323E+00      0.5546293929E+00
          0                 2           2             3    7     1      -0.4352873786E-03       1    1    1        -0.1414081824E-01      0.5545756181E-01
          0                 3           1             3    7     1       0.2964145922E-04       1    1    1         0.9898575520E-03      0.3881533766E-02

    ------------------------------------------------
       NWT REQUIRED            3 OUTER ITERATIONS 
       AND A TOTAL OF          5 INNER ITERATIONS.
    ------------------------------------------------

 NO OUTPUT CONTROL FOR STRESS PERIOD   17   TIME STEP   28
 
 SOLVING FOR HEAD 
                                                   Max.-Head-Change                         Max.-Flux-Residual
  Residual-Control   Outer-Iter.   Inner-Iter.     Column Row Layer    Maximum-Head-Change  Column Row Layer    Maximum-Flux-Residual          L2-NORM 
          0                 1           2             3    7     1       0.4396446017E-02       1    1    1         0.1412705859E+00      0.5465397734E+00
          0                 2           2             3    7     1      -0.4276549638E-03       1    1    1        -0.1412707353E-01      0.5464900461E-01
          0                 3           1             3    7     1       0.2912172022E-04       1    1    1         0.9888954442E-03      0.3824952223E-02

    ------------------------------------------------
       NWT REQUIRED            3 OUTER ITERATIONS 
       AND A TOTAL OF          5 INNER ITERATIONS.
    ------------------------------------------------

 NO OUTPUT CONTROL FOR STRESS PERIOD   17   TIME STEP   29
 
 SOLVING FOR HEAD 
                                                   Max.-Head-Change                         Max.-Flux-Residual
  Residual-Control   Outer-Iter.   Inner-Iter.     Column Row Layer    Maximum-Head-Change  Column Row Layer    Maximum-Flux-Residual          L2-NORM 
          0                 1           2             3    7     1       0.4319319418E-02       1    1    1         0.1258177942E+00      0.5521326970E+00
          0                 2           2             3    7     1      -0.4201526227E-03       1    1    1        -0.1258179058E-01      0.5508691363E-01
          0                 3           1             3    7     1       0.2861083919E-04       1    1    1         0.8807256163E-03      0.3844470539E-02

    ------------------------------------------------
       NWT REQUIRED            3 OUTER ITERATIONS 
       AND A TOTAL OF          5 INNER ITERATIONS.
    ------------------------------------------------

 NO OUTPUT CONTROL FOR STRESS PERIOD   17   TIME STEP   30



 STREAM LISTING     PERIOD     17   STEP       30

 LAYER ROW COL. STREAM  RCH.  FLOW INTO     FLOW TO   FLOW OUT OF   OVRLND.     DIRECT     STREAM       STREAM     STREAM     STREAM   STREAMBED  STREAMBED
                SEG.NO.  NO.  STRM. RCH.    AQUIFER    STRM. RCH.    RUNOFF     PRECIP       ET          HEAD       DEPTH      WIDTH   CONDCTNC.   GRADIENT

   1    1    1     1     1    2.4716E+01  2.4383E-01   2.4472E+01  0.000E+00  0.000E+00  0.000E+00  1.09422E+03  1.174E+00  1.298E+01  5.842E-02  1.391E+00
   1    2    2     1     2    2.4472E+01  3.7705E-01   2.4095E+01  0.000E+00  0.000E+00  0.000E+00  1.08923E+03  1.169E+00  1.292E+01  9.043E-02  1.390E+00
   1    3    3     1     3    2.4095E+01  3.2100E-01   2.3774E+01  0.000E+00  0.000E+00  0.000E+00  1.08358E+03  1.164E+00  1.285E+01  7.709E-02  1.388E+00
   1    3    4     1     4    2.3774E+01  2.9513E-01   2.3479E+01  0.000E+00  0.000E+00  0.000E+00  1.07857E+03  1.159E+00  1.278E+01  7.096E-02  1.386E+00
   1    4    5     2     1    2.1479E+01  3.1960E-01   2.1159E+01  0.000E+00  0.000E+00  0.000E+00  1.07303E+03  1.097E+00  1.200E+01  7.800E-02  1.366E+00
   1    5    6     2     2    2.1159E+01  2.4532E-01   2.0914E+01  0.000E+00  0.000E+00  0.000E+00  1.06760E+03  1.089E+00  1.200E+01  6.000E-02  1.363E+00
   1    6    6     2     3    2.0914E+01  2.4487E-01   2.0669E+01  0.000E+00  0.000E+00  0.000E+00  1.06287E+03  1.081E+00  1.200E+01  6.000E-02  1.360E+00
   1    7    6     2     4    2.0669E+01  2.4441E-01   2.0424E+01  0.000E+00  0.000E+00  0.000E+00  1.05815E+03  1.073E+00  1.200E+01  6.000E-02  1.358E+00
   1    8    6     2     5    2.0424E+01  2.4395E-01   2.0180E+01  0.000E+00  0.000E+00  0.000E+00  1.05342E+03  1.066E+00  1.200E+01  6.000E-02  1.355E+00
   1    3    5     3     1    2.0000E+00  2.8252E-01   1.7175E+00  0.000E+00  0.000E+00  0.000E+00  1.07555E+03  1.909E+00  9.636E+00  7.227E-02  1.955E+00
   1    3    6     3     2    1.7175E+00  2.4905E-01   1.4684E+00  0.000E+00  0.000E+00  0.000E+00  1.07264E+03  1.727E+00  8.909E+00  6.682E-02  1.864E+00
   1    3    7     3     3    1.4684E+00  1.9718E-01   1.2712E+00  0.000E+00  0.000E+00  0.000E+00  1.06987E+03  1.555E+00  8.218E+00  5.547E-02  1.777E+00
   1    4    8     3     4    1.2712E+00  2.2567E-01   1.0456E+00  0.000E+00  0.000E+00  0.000E+00  1.06682E+03  1.364E+00  7.455E+00  6.709E-02  1.682E+00
   1    5    8     3     5    1.0456E+00  1.5790E-01   8.8768E-01  0.000E+00  0.000E+00  0.000E+00  1.06362E+03  1.164E+00  6.655E+00  4.991E-02  1.582E+00
   1    6    8     3     6    8.8768E-01  5.5980E-02   8.3170E-01  0.000E+00  0.000E+00  0.000E+00  1.06158E+03  1.036E+00  6.145E+00  1.844E-02  1.518E+00
   1    5   10     4     1    1.0000E+01  9.0919E-02   9.9091E+00  0.000E+00  0.000E+00  0.000E+00  1.07836E+03  6.368E-01  1.000E+01  2.500E-02  1.212E+00
   1    5    9     4     2    9.9091E+00  1.8158E-01   9.7275E+00  0.000E+00  0.000E+00  0.000E+00  1.07154E+03  6.315E-01  1.000E+01  5.000E-02  1.211E+00
   1    6    8     4     3    9.7275E+00  1.2689E-01   9.6006E+00  0.000E+00  0.000E+00  0.000E+00  1.06381E+03  6.256E-01  1.000E+01  3.500E-02  1.209E+00
   1    6    8     5     1    1.0432E+01  2.2686E-01   1.0205E+01  0.000E+00  0.000E+00  0.000E+00  1.05868E+03  6.790E-01  1.542E+01  6.166E-02  1.226E+00
   1    7    7     5     2    1.0205E+01  2.7894E-01   9.9265E+00  0.000E+00  0.000E+00  0.000E+00  1.05417E+03  6.732E-01  1.519E+01  7.594E-02  1.224E+00
   1    8    7     5     3    9.9265E+00  1.9221E-01   9.7343E+00  0.000E+00  0.000E+00  0.000E+00  1.04992E+03  6.676E-01  1.497E+01  5.241E-02  1.223E+00
   1    8    6     5     4    9.7343E+00  1.3577E-01   9.5985E+00  0.000E+00  0.000E+00  0.000E+00  1.04691E+03  6.637E-01  1.482E+01  3.706E-02  1.221E+00
   1    9    6     6     1    2.9779E+01  2.6116E-01   2.9518E+01  0.000E+00  0.000E+00  0.000E+00  1.04408E+03  1.353E+00  1.200E+01  6.000E-02  1.451E+00
   1   10    7     6     2    2.9518E+01  2.6073E-01   2.9257E+01  0.000E+00  0.000E+00  0.000E+00  1.03953E+03  1.345E+00  1.200E+01  6.000E-02  1.448E+00
   1   11    7     6     3    2.9257E+01  2.6030E-01   2.8997E+01  0.000E+00  0.000E+00  0.000E+00  1.03497E+03  1.338E+00  1.200E+01  6.000E-02  1.446E+00
   1   12    7     6     4    2.8997E+01  2.5987E-01   2.8737E+01  0.000E+00  0.000E+00  0.000E+00  1.03042E+03  1.331E+00  1.200E+01  6.000E-02  1.444E+00
   1   13    7     6     5    2.8737E+01  1.1513E-02   2.8725E+01  0.000E+00  0.000E+00  0.000E+00  1.02724E+03  1.327E+00  1.200E+01  2.400E-02  1.599E-01
   1   14    9     7     1    1.5000E+02  1.3703E+00   1.4863E+02  0.000E+00  0.000E+00  0.000E+00  1.03987E+03  2.288E+00  5.529E+01  5.593E-01  8.167E-01
   1   13    8     7     2    1.4863E+02  1.9369E+00   1.4669E+02  0.000E+00  0.000E+00  0.000E+00  1.03478E+03  2.279E+00  5.525E+01  6.148E-01  1.050E+00
   1   13    7     7     3    1.4669E+02  1.6372E+00   1.4506E+02  0.000E+00  0.000E+00  0.000E+00  1.02969E+03  2.269E+00  5.521E+01  5.584E-01  9.773E-01
   1   13    6     8     1    1.7378E+02  1.0951E+00   1.7269E+02  0.000E+00  0.000E+00  0.000E+00  1.02485E+03  2.973E+00  4.311E+01  4.393E-01  8.309E-01
   1   13    5     8     2    1.7269E+02  3.2673E-01   1.7236E+02  0.000E+00  0.000E+00  0.000E+00  1.01859E+03  2.969E+00  4.304E+01  4.386E-01  2.483E-01
   1   13    4     8     3    1.7236E+02 -1.9985E+00   1.7436E+02  0.000E+00  0.000E+00  0.000E+00  1.01235E+03  2.974E+00  4.312E+01  4.394E+00 -1.516E-01
   1   13    3     8     4    1.7436E+02 -3.4701E+00   1.7783E+02  0.000E+00  0.000E+00  0.000E+00  1.00612E+03  2.991E+00  4.338E+01  4.420E+00 -2.617E-01
   1   13    2     8     5    1.7783E+02 -2.5848E+00   1.8041E+02  0.000E+00  0.000E+00  0.000E+00  9.99886E+02  3.011E+00  4.365E+01  4.449E+00 -1.937E-01
   1   13    1     8     6    1.8041E+02 -2.0052E+00   1.8242E+02  0.000E+00  0.000E+00  0.000E+00  9.94900E+02  3.025E+00  4.386E+01  2.682E+00 -2.492E-01
   1    8    6     9     1    0.0000E+00  0.0000E+00   0.0000E+00  0.000E+00  0.000E+00  0.000E+00  1.07875E+03  0.000E+00  4.000E+00  0.000E+00  1.000E+00
   1    8    5     9     2    0.0000E+00  0.0000E+00   0.0000E+00  0.000E+00  0.000E+00  0.000E+00  1.07825E+03  0.000E+00  4.000E+00  0.000E+00  1.000E+00





UNSATURATED ZONE PACKAGE VOLUMETRIC BUDGET FOR  TIME STEP    30 STRESS PERIOD   17
  ------------------------------------------------------------------------------



     CUMULATIVE VOLUMES      L**3       RATES FOR THIS TIME STEP      L**3/T
     ------------------                 ------------------------

           IN:                                      IN:
           ---                                      ---
        INFILTRATION =   449409254.8879          INFILTRATION =           4.5675

          OUT:                                     OUT:
          ----                                     ----
              UZF ET =   448663787.3438                UZF ET =           4.5675
        UZF RECHARGE =       73224.0000          UZF RECHARGE =       0.0000E+00

            IN - OUT =      672243.5441              IN - OUT =       0.0000E+00

          STORAGE:                                 STORAGE:
          --------                                 --------
      STORAGE CHANGE =      672243.4909        STORAGE CHANGE =      -3.3198E-16

 PERCENT DISCREPANCY IS DIFFERENCE BETWEEN IN-OUT MINUS CHANGE IN STORAGE
 DIVIDED BY THE AVERAGE OF IN AND OUT TIMES 100

 PERCENT DISCREPANCY =           0.00     PERCENT DISCREPANCY =           0.00






1
  VOLUMETRIC BUDGET FOR AGRICULTURAL FIELDS AT  END OF TIME STEP   30, STRESS PERIOD  17
  ------------------------------------------------------------------------------

     CUMULATIVE VOLUMES      L**3       RATES FOR THIS TIME STEP      L**3/T
     ------------------                 ------------------------

           IN:                                      IN:
           ---                                      ---
               AG WELLS  =   413672704.0000                 AG WELLS  =           3.7200
      DIVERSION SEGMENTS =           0.0000        DIVERSION SEGMENTS =           0.0000
       IRRIGATION PONDS  =           0.0000         IRRIGATION PONDS  =           0.0000
           GW IRRIGATION =           0.0000             GW IRRIGATION =           0.0000
           SW IRRIGATION =           0.0000             SW IRRIGATION =           0.0000
        SYSTEM LOSSES GW =           0.0000          SYSTEM LOSSES GW =           0.0000
        SYSTEM LOSSES SW =           0.0000          SYSTEM LOSSES SW =           0.0000

                TOTAL IN =   413672704.0000                  TOTAL IN =           3.7200

          OUT:                                     OUT:
          ----                                     ----
               AG WELLS  =           0.0000                 AG WELLS  =           0.0000
      DIVERSION SEGMENTS =           0.0000        DIVERSION SEGMENTS =           0.0000
       IRRIGATION PONDS  =           0.0000         IRRIGATION PONDS  =           0.0000
           GW IRRIGATION =   413672704.0000             GW IRRIGATION =           3.7200
           SW IRRIGATION =           0.0000             SW IRRIGATION =           0.0000
        SYSTEM LOSSES GW =           0.0000          SYSTEM LOSSES GW =           0.0000
        SYSTEM LOSSES SW =           0.0000          SYSTEM LOSSES SW =           0.0000

               TOTAL OUT =   413672704.0000                 TOTAL OUT =           3.7200

                IN - OUT =           0.0000                  IN - OUT =           0.0000

     PERCENT DISCREPANCY =           0.00         PERCENT DISCREPANCY =           0.00



1
  VOLUMETRIC BUDGET FOR ENTIRE MODEL AT END OF TIME STEP   30, STRESS PERIOD  17
  ------------------------------------------------------------------------------

     CUMULATIVE VOLUMES      L**3       RATES FOR THIS TIME STEP      L**3/T
     ------------------                 ------------------------

           IN:                                      IN:
           ---                                      ---
             STORAGE     =   570051584.0000               STORAGE     =           3.1576
       CONSTANT HEAD     =           0.0000         CONSTANT HEAD     =           0.0000
     HEAD DEP BOUNDS     =    12141594.0000       HEAD DEP BOUNDS     =           0.2881
      STREAM LEAKAGE     =   498959296.0000        STREAM LEAKAGE     =          12.3564
        UZF RECHARGE     =       73223.9531          UZF RECHARGE     =           0.0000
               GW ET     =           0.0000                 GW ET     =           0.0000
     SURFACE LEAKAGE     =           0.0000       SURFACE LEAKAGE     =           0.0000
           AG WELLS      =           0.0000             AG WELLS      =           0.0000

                TOTAL IN =  1081225728.0000                  TOTAL IN =          15.8021

          OUT:                                     OUT:
          ----                                     ----
             STORAGE     =   227523312.0000               STORAGE     =           1.7324
       CONSTANT HEAD     =           0.0000         CONSTANT HEAD     =           0.0000
     HEAD DEP BOUNDS     =    12188729.0000       HEAD DEP BOUNDS     =           0.2906
      STREAM LEAKAGE     =   427846336.0000        STREAM LEAKAGE     =          10.0587
        UZF RECHARGE     =           0.0000          UZF RECHARGE     =           0.0000
               GW ET     =           0.0000                 GW ET     =           0.0000
     SURFACE LEAKAGE     =           0.0000       SURFACE LEAKAGE     =           0.0000
           AG WELLS      =   413672704.0000             AG WELLS      =           3.7200

               TOTAL OUT =  1081231104.0000                 TOTAL OUT =          15.8017

                IN - OUT =       -5376.0000                  IN - OUT =       4.1199E-04

     PERCENT DISCREPANCY =          -0.00         PERCENT DISCREPANCY =           0.00






         TIME SUMMARY AT END OF TIME STEP   30 IN STRESS PERIOD   17
                    SECONDS     MINUTES      HOURS       DAYS        YEARS
                    -----------------------------------------------------------
   TIME STEP LENGTH  87667.      1461.1      24.352      1.0147     2.77799E-03
 STRESS PERIOD TIME 2.63000E+06  43833.      730.56      30.440     8.33397E-02
         TOTAL TIME 4.21664E+07 7.02774E+05  11713.      488.04      1.3362    
1
1
                            STRESS PERIOD NO.   18, LENGTH =   2630000.    
                            -----------------------------------------------

                              NUMBER OF TIME STEPS =    30

                               MULTIPLIER FOR DELT =     1.000

                            INITIAL TIME STEP SIZE =   87666.66    

 REUSING NON-PARAMETER GHB CELLS FROM LAST STRESS PERIOD

      2 GHB CELLS

 REUSING STREAM SEGMENT DATA FROM LAST STRESS PERIOD



            AREAL INFILTRATION RATE
 READING ON UNIT   19 WITH FORMAT: (FREE)              

            1           2           3           4           5           6           7           8           9          10
 ........................................................................................................................
   1   1.0000E-10  2.0000E-10   0.000       0.000       0.000       0.000       0.000       0.000       0.000       0.000    
   2   2.0000E-10  1.0000E-10  2.0000E-10   0.000       0.000      8.0000E-10  8.0000E-10  5.0000E-10   0.000       0.000    
   3    0.000      5.0000E-10  1.0000E-10  1.0000E-10  8.0000E-10  8.0000E-10  5.0000E-10  5.0000E-10   0.000       0.000    
   4   8.0000E-10  5.0000E-10  1.0000E-10  1.0000E-10  1.0000E-10  1.0000E-10  1.0000E-10  1.0000E-10  2.0000E-10   0.000    
   5   8.0000E-10  5.0000E-10  1.0000E-10  1.0000E-10  1.0000E-10  1.0000E-10  1.0000E-10  1.0000E-10  1.0000E-10  1.0000E-10
   6   8.0000E-10  5.0000E-10  5.0000E-10  2.0000E-10  2.0000E-10  1.0000E-10  1.0000E-10  1.0000E-10  1.0000E-10  5.0000E-10
   7   8.0000E-10  5.0000E-10  5.0000E-10  2.0000E-10  2.0000E-10  1.0000E-10  1.0000E-10  2.0000E-10  2.0000E-10   0.000    
   8    0.000      5.0000E-10  5.0000E-10  2.0000E-10  2.0000E-10  1.0000E-10  1.0000E-10  2.0000E-10  5.0000E-10   0.000    
   9    0.000      5.0000E-10  5.0000E-10  2.0000E-10  2.0000E-10  1.0000E-10  1.0000E-10  2.0000E-10  5.0000E-10   0.000    
  10    0.000      5.0000E-10  5.0000E-10  2.0000E-10  2.0000E-10  1.0000E-10  1.0000E-10  2.0000E-10  5.0000E-10  8.0000E-10
  11    0.000      1.0000E-10  1.0000E-10  1.0000E-10  1.0000E-10  1.0000E-10  1.0000E-10  2.0000E-10  5.0000E-10   0.000    
  12   1.0000E-10  1.0000E-10  1.0000E-10  1.0000E-10  1.0000E-10  1.0000E-10  1.0000E-10  1.0000E-10  2.0000E-10   0.000    
  13   1.0000E-10  1.0000E-10  2.0000E-10  2.0000E-10  2.0000E-10  2.0000E-10  2.0000E-10  1.0000E-10  1.0000E-10   0.000    
  14    0.000      2.0000E-10  5.0000E-10  5.0000E-10  5.0000E-10  5.0000E-10  5.0000E-10  2.0000E-10  1.0000E-10   0.000    
  15    0.000       0.000      8.0000E-10  8.0000E-10  8.0000E-10  8.0000E-10   0.000       0.000       0.000       0.000    

                  ET RATE =  5.000000E-08

 USING ET EXTINCTION DEPTH FROM PREVIOUS STRESS PERIOD. CURRENT PERIOD IS:      18

 USING EXTINCTION WATER CONTENT FROM PREVIOUS STRESS PERIOD. CURRENT PERIOD IS:      18

 USING AIR ENTRY PRESSURE FROM PREVIOUS STRESS PERIOD. CURRENT PERIOD IS:      18

 USING ROOT PRESSURE HEAD FROM PREVIOUS STRESS PERIOD. CURRENT PERIOD IS:      18

 USING ROOT ACTIVITY FROM PREVIOUS STRESS PERIOD. CURRENT PERIOD IS:      18

 PROCESSING AG STRESS PERIOD DATA

 READING AG STRESS PERIOD DATA

 READING IRRIGATION SEGMENT

 READING IRRIGATION WELL

 READING SUPPLEMENTAL WELL

 NO IRRPOND OR REUSING IRRPOND DATA FROM LAST STRESS PERIOD

 END PROCESSING AG STRESS PERIOD DATA OPTIONS
 
 SOLVING FOR HEAD 
                                                   Max.-Head-Change                         Max.-Flux-Residual
  Residual-Control   Outer-Iter.   Inner-Iter.     Column Row Layer    Maximum-Head-Change  Column Row Layer    Maximum-Flux-Residual          L2-NORM 
          0                 1           2             4    7     1      -0.1337320372E-01       4    7    1        -0.7001328582E+00      0.1742887795E+01
          0                 2           2             4    7     1       0.1300847244E-02       4    7    1         0.7001323944E-01      0.1742321475E+00
          0                 3           1             4    7     1      -0.8858288239E-04       4    7    1        -0.4900929325E-02      0.1219119192E-01

    ------------------------------------------------
       NWT REQUIRED            3 OUTER ITERATIONS 
       AND A TOTAL OF          5 INNER ITERATIONS.
    ------------------------------------------------

 NO OUTPUT CONTROL FOR STRESS PERIOD   18   TIME STEP    1
 
 SOLVING FOR HEAD 
                                                   Max.-Head-Change                         Max.-Flux-Residual
  Residual-Control   Outer-Iter.   Inner-Iter.     Column Row Layer    Maximum-Head-Change  Column Row Layer    Maximum-Flux-Residual          L2-NORM 
          0                 1           2             4    7     1      -0.1326644724E-01       4    7    1        -0.6948487966E+00      0.1704071096E+01
          0                 2           2             4    7     1       0.1290462578E-02       4    7    1         0.6948482143E-01      0.1703585503E+00
          0                 3           1             4    7     1      -0.8787572644E-04       4    7    1        -0.4863940145E-02      0.1192060049E-01

    ------------------------------------------------
       NWT REQUIRED            3 OUTER ITERATIONS 
       AND A TOTAL OF          5 INNER ITERATIONS.
    ------------------------------------------------

 NO OUTPUT CONTROL FOR STRESS PERIOD   18   TIME STEP    2
 
 SOLVING FOR HEAD 
                                                   Max.-Head-Change                         Max.-Flux-Residual
  Residual-Control   Outer-Iter.   Inner-Iter.     Column Row Layer    Maximum-Head-Change  Column Row Layer    Maximum-Flux-Residual          L2-NORM 
          0                 1           2             4    7     1      -0.1315522472E-01       4    7    1        -0.6893061096E+00      0.1667180538E+01
          0                 2           2             4    7     1       0.1279643510E-02       4    7    1         0.6893054218E-01      0.1666739409E+00
          0                 3           1             4    7     1      -0.8713898988E-04       4    7    1        -0.4825140693E-02      0.1166319851E-01

    ------------------------------------------------
       NWT REQUIRED            3 OUTER ITERATIONS 
       AND A TOTAL OF          5 INNER ITERATIONS.
    ------------------------------------------------

 NO OUTPUT CONTROL FOR STRESS PERIOD   18   TIME STEP    3
 
 SOLVING FOR HEAD 
                                                   Max.-Head-Change                         Max.-Flux-Residual
  Residual-Control   Outer-Iter.   Inner-Iter.     Column Row Layer    Maximum-Head-Change  Column Row Layer    Maximum-Flux-Residual          L2-NORM 
          0                 1           2             4    7     1      -0.1303988779E-01       4    7    1        -0.6835245359E+00      0.1632066956E+01
          0                 2           2             4    7     1       0.1268429046E-02       4    7    1         0.6835237542E-01      0.1631563972E+00
          0                 3           1             4    7     1      -0.8638000710E-04       4    7    1        -0.4784669093E-02      0.1142750175E-01

    ------------------------------------------------
       NWT REQUIRED            3 OUTER ITERATIONS 
       AND A TOTAL OF          5 INNER ITERATIONS.
    ------------------------------------------------

 NO OUTPUT CONTROL FOR STRESS PERIOD   18   TIME STEP    4
 
 SOLVING FOR HEAD 
                                                   Max.-Head-Change                         Max.-Flux-Residual
  Residual-Control   Outer-Iter.   Inner-Iter.     Column Row Layer    Maximum-Head-Change  Column Row Layer    Maximum-Flux-Residual          L2-NORM 
          0                 1           2             4    7     1      -0.1292090397E-01       4    7    1        -0.6775296511E+00      0.1598609060E+01
          0                 2           2             4    7     1       0.1256745131E-02       4    7    1         0.6775287867E-01      0.1596232615E+00
          0                 3           1             4    7     1      -0.8557969762E-04       4    7    1        -0.4742704391E-02      0.1117051335E-01

    ------------------------------------------------
       NWT REQUIRED            3 OUTER ITERATIONS 
       AND A TOTAL OF          5 INNER ITERATIONS.
    ------------------------------------------------

 NO OUTPUT CONTROL FOR STRESS PERIOD   18   TIME STEP    5
 
 SOLVING FOR HEAD 
                                                   Max.-Head-Change                         Max.-Flux-Residual
  Residual-Control   Outer-Iter.   Inner-Iter.     Column Row Layer    Maximum-Head-Change  Column Row Layer    Maximum-Flux-Residual          L2-NORM 
          0                 1           2             4    7     1      -0.1279915831E-01       4    7    1        -0.6713585826E+00      0.1566880084E+01
          0                 2           2             4    7     1       0.1245007634E-02       4    7    1         0.6713576491E-01      0.1566572338E+00
          0                 3           1             4    7     1      -0.8478041825E-04       4    7    1        -0.4699506456E-02      0.1096305059E-01

    ------------------------------------------------
       NWT REQUIRED            3 OUTER ITERATIONS 
       AND A TOTAL OF          5 INNER ITERATIONS.
    ------------------------------------------------

 NO OUTPUT CONTROL FOR STRESS PERIOD   18   TIME STEP    6
 
 SOLVING FOR HEAD 
                                                   Max.-Head-Change                         Max.-Flux-Residual
  Residual-Control   Outer-Iter.   Inner-Iter.     Column Row Layer    Maximum-Head-Change  Column Row Layer    Maximum-Flux-Residual          L2-NORM 
          0                 1           2             4    7     1      -0.1267458534E-01       4    7    1        -0.6650258276E+00      0.1536591228E+01
          0                 2           2             4    7     1       0.1232889992E-02       4    7    1         0.6650248321E-01      0.1536320559E+00
          0                 3           1             4    7     1      -0.8395525275E-04       4    7    1        -0.4655176771E-02      0.1075179201E-01

    ------------------------------------------------
       NWT REQUIRED            3 OUTER ITERATIONS 
       AND A TOTAL OF          5 INNER ITERATIONS.
    ------------------------------------------------

 NO OUTPUT CONTROL FOR STRESS PERIOD   18   TIME STEP    7
 
 SOLVING FOR HEAD 
                                                   Max.-Head-Change                         Max.-Flux-Residual
  Residual-Control   Outer-Iter.   Inner-Iter.     Column Row Layer    Maximum-Head-Change  Column Row Layer    Maximum-Flux-Residual          L2-NORM 
          0                 1           2             4    7     1      -0.1254752499E-01       4    7    1        -0.6585447384E+00      0.1507625699E+01
          0                 2           2             4    7     1       0.1220530409E-02       4    7    1         0.6585436895E-01      0.1507385400E+00
          0                 3           1             4    7     1      -0.8311361206E-04       4    7    1        -0.4609808813E-02      0.1054962807E-01

    ------------------------------------------------
       NWT REQUIRED            3 OUTER ITERATIONS 
       AND A TOTAL OF          5 INNER ITERATIONS.
    ------------------------------------------------

 NO OUTPUT CONTROL FOR STRESS PERIOD   18   TIME STEP    8
 
 SOLVING FOR HEAD 
                                                   Max.-Head-Change                         Max.-Flux-Residual
  Residual-Control   Outer-Iter.   Inner-Iter.     Column Row Layer    Maximum-Head-Change  Column Row Layer    Maximum-Flux-Residual          L2-NORM 
          0                 1           2             4    7     1      -0.1241860102E-01       4    7    1        -0.6519493521E+00      0.1479912322E+01
          0                 2           2             4    7     1       0.1207989557E-02       4    7    1         0.6519482572E-01      0.1479698873E+00
          0                 3           1             4    7     1      -0.8225962709E-04       4    7    1        -0.4563640805E-02      0.1035598260E-01

    ------------------------------------------------
       NWT REQUIRED            3 OUTER ITERATIONS 
       AND A TOTAL OF          5 INNER ITERATIONS.
    ------------------------------------------------

 NO OUTPUT CONTROL FOR STRESS PERIOD   18   TIME STEP    9
 
 SOLVING FOR HEAD 
                                                   Max.-Head-Change                         Max.-Flux-Residual
  Residual-Control   Outer-Iter.   Inner-Iter.     Column Row Layer    Maximum-Head-Change  Column Row Layer    Maximum-Flux-Residual          L2-NORM 
          0                 1           2             4    7     1      -0.1228798922E-01       4    7    1        -0.6452500114E+00      0.1453361259E+01
          0                 2           2             4    7     1       0.1195284536E-02       4    7    1         0.6452488776E-01      0.1453171325E+00
          0                 3           1             4    7     1      -0.8139446310E-04       4    7    1        -0.4516745173E-02      0.1017053180E-01

    ------------------------------------------------
       NWT REQUIRED            3 OUTER ITERATIONS 
       AND A TOTAL OF          5 INNER ITERATIONS.
    ------------------------------------------------

 NO OUTPUT CONTROL FOR STRESS PERIOD   18   TIME STEP   10
 
 SOLVING FOR HEAD 
                                                   Max.-Head-Change                         Max.-Flux-Residual
  Residual-Control   Outer-Iter.   Inner-Iter.     Column Row Layer    Maximum-Head-Change  Column Row Layer    Maximum-Flux-Residual          L2-NORM 
          0                 1           2             4    7     1      -0.1215599519E-01       4    7    1        -0.6384631633E+00      0.1427908888E+01
          0                 2           2             4    7     1       0.1182445071E-02       4    7    1         0.6384619969E-01      0.1427740787E+00
          0                 3           1             4    7     1      -0.8052014363E-04       4    7    1        -0.4469237028E-02      0.9992651393E-02

    ------------------------------------------------
       NWT REQUIRED            3 OUTER ITERATIONS 
       AND A TOTAL OF          5 INNER ITERATIONS.
    ------------------------------------------------

 NO OUTPUT CONTROL FOR STRESS PERIOD   18   TIME STEP   11
 
 SOLVING FOR HEAD 
                                                   Max.-Head-Change                         Max.-Flux-Residual
  Residual-Control   Outer-Iter.   Inner-Iter.     Column Row Layer    Maximum-Head-Change  Column Row Layer    Maximum-Flux-Residual          L2-NORM 
          0                 1           2             4    7     1      -0.1202302802E-01       4    7    1        -0.6316119846E+00      0.1403485044E+01
          0                 2           2             4    7     1       0.1169510953E-02       4    7    1         0.6316107911E-01      0.1403331710E+00
          0                 3           1             4    7     1      -0.7963937861E-04       4    7    1        -0.4421278579E-02      0.9827616675E-02

    ------------------------------------------------
       NWT REQUIRED            3 OUTER ITERATIONS 
       AND A TOTAL OF          5 INNER ITERATIONS.
    ------------------------------------------------

 NO OUTPUT CONTROL FOR STRESS PERIOD   18   TIME STEP   12
 
 SOLVING FOR HEAD 
                                                   Max.-Head-Change                         Max.-Flux-Residual
  Residual-Control   Outer-Iter.   Inner-Iter.     Column Row Layer    Maximum-Head-Change  Column Row Layer    Maximum-Flux-Residual          L2-NORM 
          0                 1           2             4    7     1      -0.1188906936E-01       4    7    1        -0.6246956898E+00      0.1380024860E+01
          0                 2           2             4    7     1       0.1156480398E-02       4    7    1         0.6246944749E-01      0.1379889325E+00
          0                 3           1             4    7     1      -0.7875204601E-04       4    7    1        -0.4372864348E-02      0.9657998846E-02

    ------------------------------------------------
       NWT REQUIRED            3 OUTER ITERATIONS 
       AND A TOTAL OF          5 INNER ITERATIONS.
    ------------------------------------------------

 NO OUTPUT CONTROL FOR STRESS PERIOD   18   TIME STEP   13
 
 SOLVING FOR HEAD 
                                                   Max.-Head-Change                         Max.-Flux-Residual
  Residual-Control   Outer-Iter.   Inner-Iter.     Column Row Layer    Maximum-Head-Change  Column Row Layer    Maximum-Flux-Residual          L2-NORM 
          0                 1           2             4    7     1      -0.1175450432E-01       4    7    1        -0.6177353235E+00      0.1357486603E+01
          0                 2           2             4    7     1       0.1143390867E-02       4    7    1         0.6177340917E-01      0.1357342611E+00
          0                 3           1             4    7     1      -0.7786069791E-04       4    7    1        -0.4324141673E-02      0.9500323931E-02

    ------------------------------------------------
       NWT REQUIRED            3 OUTER ITERATIONS 
       AND A TOTAL OF          5 INNER ITERATIONS.
    ------------------------------------------------

 NO OUTPUT CONTROL FOR STRESS PERIOD   18   TIME STEP   14
 
 SOLVING FOR HEAD 
                                                   Max.-Head-Change                         Max.-Flux-Residual
  Residual-Control   Outer-Iter.   Inner-Iter.     Column Row Layer    Maximum-Head-Change  Column Row Layer    Maximum-Flux-Residual          L2-NORM 
          0                 1           2             4    7     1      -0.1161955421E-01       4    7    1        -0.6107435217E+00      0.1335802589E+01
          0                 2           2             4    7     1       0.1130263885E-02       4    7    1         0.6107422777E-01      0.1335693848E+00
          0                 3           1             4    7     1      -0.7696679941E-04       4    7    1        -0.4275198968E-02      0.9348872543E-02

    ------------------------------------------------
       NWT REQUIRED            3 OUTER ITERATIONS 
       AND A TOTAL OF          5 INNER ITERATIONS.
    ------------------------------------------------

 NO OUTPUT CONTROL FOR STRESS PERIOD   18   TIME STEP   15
 
 SOLVING FOR HEAD 
                                                   Max.-Head-Change                         Max.-Flux-Residual
  Residual-Control   Outer-Iter.   Inner-Iter.     Column Row Layer    Maximum-Head-Change  Column Row Layer    Maximum-Flux-Residual          L2-NORM 
          0                 1           2             4    7     1      -0.1148442286E-01       4    7    1        -0.6037317580E+00      0.1314933695E+01
          0                 2           2             4    7     1       0.1117119279E-02       4    7    1         0.6037305056E-01      0.1314835658E+00
          0                 3           1             4    7     1      -0.7607170086E-04       4    7    1        -0.4226116560E-02      0.9203001732E-02

    ------------------------------------------------
       NWT REQUIRED            3 OUTER ITERATIONS 
       AND A TOTAL OF          5 INNER ITERATIONS.
    ------------------------------------------------

 NO OUTPUT CONTROL FOR STRESS PERIOD   18   TIME STEP   16
 
 SOLVING FOR HEAD 
                                                   Max.-Head-Change                         Max.-Flux-Residual
  Residual-Control   Outer-Iter.   Inner-Iter.     Column Row Layer    Maximum-Head-Change  Column Row Layer    Maximum-Flux-Residual          L2-NORM 
          0                 1           2             4    7     1      -0.1134929927E-01       4    7    1        -0.5967106009E+00      0.1294834544E+01
          0                 2           2             4    7     1       0.1103975433E-02       4    7    1         0.5967093435E-01      0.1294746229E+00
          0                 3           1             4    7     1      -0.7517665343E-04       4    7    1        -0.4176968388E-02      0.9062390727E-02

    ------------------------------------------------
       NWT REQUIRED            3 OUTER ITERATIONS 
       AND A TOTAL OF          5 INNER ITERATIONS.
    ------------------------------------------------

 NO OUTPUT CONTROL FOR STRESS PERIOD   18   TIME STEP   17
 
 SOLVING FOR HEAD 
                                                   Max.-Head-Change                         Max.-Flux-Residual
  Residual-Control   Outer-Iter.   Inner-Iter.     Column Row Layer    Maximum-Head-Change  Column Row Layer    Maximum-Flux-Residual          L2-NORM 
          0                 1           2             4    7     1      -0.1121435258E-01       4    7    1        -0.5896898497E+00      0.1275462247E+01
          0                 2           2             4    7     1       0.1090848799E-02       4    7    1         0.5896885906E-01      0.1275382467E+00
          0                 3           1             4    7     1      -0.7428277824E-04       4    7    1        -0.4127823106E-02      0.8926960991E-02

    ------------------------------------------------
       NWT REQUIRED            3 OUTER ITERATIONS 
       AND A TOTAL OF          5 INNER ITERATIONS.
    ------------------------------------------------

 NO OUTPUT CONTROL FOR STRESS PERIOD   18   TIME STEP   18
 
 SOLVING FOR HEAD 
                                                   Max.-Head-Change                         Max.-Flux-Residual
  Residual-Control   Outer-Iter.   Inner-Iter.     Column Row Layer    Maximum-Head-Change  Column Row Layer    Maximum-Flux-Residual          L2-NORM 
          0                 1           2             4    7     1      -0.1107974863E-01       4    7    1        -0.5826782742E+00      0.1256786455E+01
          0                 2           2             4    7     1       0.1077755509E-02       4    7    1         0.5826770162E-01      0.1256714056E+00
          0                 3           1             4    7     1      -0.7339117370E-04       4    7    1        -0.4078742061E-02      0.8796370561E-02

    ------------------------------------------------
       NWT REQUIRED            3 OUTER ITERATIONS 
       AND A TOTAL OF          5 INNER ITERATIONS.
    ------------------------------------------------

 NO OUTPUT CONTROL FOR STRESS PERIOD   18   TIME STEP   19
 
 SOLVING FOR HEAD 
                                                   Max.-Head-Change                         Max.-Flux-Residual
  Residual-Control   Outer-Iter.   Inner-Iter.     Column Row Layer    Maximum-Head-Change  Column Row Layer    Maximum-Flux-Residual          L2-NORM 
          0                 1           2             4    7     1      -0.1094562875E-01       4    7    1        -0.5756844729E+00      0.1238761191E+01
          0                 2           2             4    7     1       0.1064709308E-02       4    7    1         0.5756832187E-01      0.1238695305E+00
          0                 3           1             4    7     1      -0.7250277584E-04       4    7    1        -0.4029785449E-02      0.8670269745E-02

    ------------------------------------------------
       NWT REQUIRED            3 OUTER ITERATIONS 
       AND A TOTAL OF          5 INNER ITERATIONS.
    ------------------------------------------------

 NO OUTPUT CONTROL FOR STRESS PERIOD   18   TIME STEP   20
 
 SOLVING FOR HEAD 
                                                   Max.-Head-Change                         Max.-Flux-Residual
  Residual-Control   Outer-Iter.   Inner-Iter.     Column Row Layer    Maximum-Head-Change  Column Row Layer    Maximum-Flux-Residual          L2-NORM 
          0                 1           2             4    7     1      -0.1081212654E-01       4    7    1        -0.5687157729E+00      0.1221365750E+01
          0                 2           2             4    7     1       0.1051723195E-02       4    7    1         0.5687145248E-01      0.1221306434E+00
          0                 3           1             4    7     1      -0.7161846983E-04       4    7    1        -0.3981004578E-02      0.8548662177E-02

    ------------------------------------------------
       NWT REQUIRED            3 OUTER ITERATIONS 
       AND A TOTAL OF          5 INNER ITERATIONS.
    ------------------------------------------------

 NO OUTPUT CONTROL FOR STRESS PERIOD   18   TIME STEP   21
 
 SOLVING FOR HEAD 
                                                   Max.-Head-Change                         Max.-Flux-Residual
  Residual-Control   Outer-Iter.   Inner-Iter.     Column Row Layer    Maximum-Head-Change  Column Row Layer    Maximum-Flux-Residual          L2-NORM 
          0                 1           2             4    7     1      -0.1067949930E-01       4    7    1        -0.5617864322E+00      0.1204564178E+01
          0                 2           2             4    7     1       0.1038822194E-02       4    7    1         0.5617851920E-01      0.1204510325E+00
          0                 3           1             4    7     1      -0.7073995959E-04       4    7    1        -0.3932499235E-02      0.8431110589E-02

    ------------------------------------------------
       NWT REQUIRED            3 OUTER ITERATIONS 
       AND A TOTAL OF          5 INNER ITERATIONS.
    ------------------------------------------------

 NO OUTPUT CONTROL FOR STRESS PERIOD   18   TIME STEP   22
 
 SOLVING FOR HEAD 
                                                   Max.-Head-Change                         Max.-Flux-Residual
  Residual-Control   Outer-Iter.   Inner-Iter.     Column Row Layer    Maximum-Head-Change  Column Row Layer    Maximum-Flux-Residual          L2-NORM 
          0                 1           2             4    7     1      -0.1054758456E-01       4    7    1        -0.5548877997E+00      0.1188331255E+01
          0                 2           2             4    7     1       0.1025990503E-02       4    7    1         0.5548865695E-01      0.1188281593E+00
          0                 3           1             4    7     1      -0.6986616850E-04       4    7    1        -0.3884208819E-02      0.8317522378E-02

    ------------------------------------------------
       NWT REQUIRED            3 OUTER ITERATIONS 
       AND A TOTAL OF          5 INNER ITERATIONS.
    ------------------------------------------------

 NO OUTPUT CONTROL FOR STRESS PERIOD   18   TIME STEP   23
 
 SOLVING FOR HEAD 
                                                   Max.-Head-Change                         Max.-Flux-Residual
  Residual-Control   Outer-Iter.   Inner-Iter.     Column Row Layer    Maximum-Head-Change  Column Row Layer    Maximum-Flux-Residual          L2-NORM 
          0                 1           2             4    7     1      -0.1041661811E-01       4    7    1        -0.5480334429E+00      0.1172629704E+01
          0                 2           2             4    7     1       0.1013251056E-02       4    7    1         0.5480322241E-01      0.1172584124E+00
          0                 3           1             4    7     1      -0.6899865954E-04       4    7    1        -0.3836228378E-02      0.8207690815E-02

    ------------------------------------------------
       NWT REQUIRED            3 OUTER ITERATIONS 
       AND A TOTAL OF          5 INNER ITERATIONS.
    ------------------------------------------------

 NO OUTPUT CONTROL FOR STRESS PERIOD   18   TIME STEP   24
 
 SOLVING FOR HEAD 
                                                   Max.-Head-Change                         Max.-Flux-Residual
  Residual-Control   Outer-Iter.   Inner-Iter.     Column Row Layer    Maximum-Head-Change  Column Row Layer    Maximum-Flux-Residual          L2-NORM 
          0                 1           2             4    7     1      -0.1028669407E-01       4    7    1        -0.5412282564E+00      0.1157448768E+01
          0                 2           2             4    7     1       0.1000613011E-02       4    7    1         0.5412270506E-01      0.1157407189E+00
          0                 3           1             4    7     1      -0.6813805482E-04       4    7    1        -0.3788592123E-02      0.8101472908E-02

    ------------------------------------------------
       NWT REQUIRED            3 OUTER ITERATIONS 
       AND A TOTAL OF          5 INNER ITERATIONS.
    ------------------------------------------------

 NO OUTPUT CONTROL FOR STRESS PERIOD   18   TIME STEP   25
 
 SOLVING FOR HEAD 
                                                   Max.-Head-Change                         Max.-Flux-Residual
  Residual-Control   Outer-Iter.   Inner-Iter.     Column Row Layer    Maximum-Head-Change  Column Row Layer    Maximum-Flux-Residual          L2-NORM 
          0                 1           2             4    7     1      -0.1015789192E-01       4    7    1        -0.5344771207E+00      0.1142755784E+01
          0                 2           2             4    7     1       0.9880840963E-03       4    7    1         0.5344759291E-01      0.1142717503E+00
          0                 3           1             4    7     1      -0.6728488235E-04       4    7    1        -0.3741334244E-02      0.7998643998E-02

    ------------------------------------------------
       NWT REQUIRED            3 OUTER ITERATIONS 
       AND A TOTAL OF          5 INNER ITERATIONS.
    ------------------------------------------------

 NO OUTPUT CONTROL FOR STRESS PERIOD   18   TIME STEP   26
 
 SOLVING FOR HEAD 
                                                   Max.-Head-Change                         Max.-Flux-Residual
  Residual-Control   Outer-Iter.   Inner-Iter.     Column Row Layer    Maximum-Head-Change  Column Row Layer    Maximum-Flux-Residual          L2-NORM 
          0                 1           2             4    7     1      -0.1003042123E-01       4    7    1        -0.5277914855E+00      0.1128546848E+01
          0                 2           2             4    7     1       0.9756846971E-03       4    7    1         0.5277903089E-01      0.1128511574E+00
          0                 3           1             4    7     1      -0.6644052915E-04       4    7    1        -0.3694534873E-02      0.7899289299E-02

    ------------------------------------------------
       NWT REQUIRED            3 OUTER ITERATIONS 
       AND A TOTAL OF          5 INNER ITERATIONS.
    ------------------------------------------------

 NO OUTPUT CONTROL FOR STRESS PERIOD   18   TIME STEP   27
 
 SOLVING FOR HEAD 
                                                   Max.-Head-Change                         Max.-Flux-Residual
  Residual-Control   Outer-Iter.   Inner-Iter.     Column Row Layer    Maximum-Head-Change  Column Row Layer    Maximum-Flux-Residual          L2-NORM 
          0                 1           2             4    7     1      -0.9904067025E-02       4    7    1        -0.5211602285E+00      0.1114775893E+01
          0                 2           2             4    7     1       0.9633939037E-03       4    7    1         0.5211590682E-01      0.1114743241E+00
          0                 3           1             4    7     1      -0.6560357140E-04       4    7    1        -0.3648116148E-02      0.7802899753E-02

    ------------------------------------------------
       NWT REQUIRED            3 OUTER ITERATIONS 
       AND A TOTAL OF          5 INNER ITERATIONS.
    ------------------------------------------------

 NO OUTPUT CONTROL FOR STRESS PERIOD   18   TIME STEP   28
 
 SOLVING FOR HEAD 
                                                   Max.-Head-Change                         Max.-Flux-Residual
  Residual-Control   Outer-Iter.   Inner-Iter.     Column Row Layer    Maximum-Head-Change  Column Row Layer    Maximum-Flux-Residual          L2-NORM 
          0                 1           2             4    7     1      -0.9779166954E-02       4    7    1        -0.5146015209E+00      0.1101444793E+01
          0                 2           2             4    7     1       0.9512445584E-03       4    7    1         0.5146003774E-01      0.1101414528E+00
          0                 3           1             4    7     1      -0.6477624614E-04       4    7    1        -0.3602205279E-02      0.7709591674E-02

    ------------------------------------------------
       NWT REQUIRED            3 OUTER ITERATIONS 
       AND A TOTAL OF          5 INNER ITERATIONS.
    ------------------------------------------------

 NO OUTPUT CONTROL FOR STRESS PERIOD   18   TIME STEP   29
 
 SOLVING FOR HEAD 
                                                   Max.-Head-Change                         Max.-Flux-Residual
  Residual-Control   Outer-Iter.   Inner-Iter.     Column Row Layer    Maximum-Head-Change  Column Row Layer    Maximum-Flux-Residual          L2-NORM 
          0                 1           2             4    7     1      -0.9655495713E-02       4    7    1        -0.5081035528E+00      0.1088522773E+01
          0                 2           2             4    7     1       0.9392147457E-03       4    7    1         0.5081024267E-01      0.1088494965E+00
          0                 3           1             4    7     1      -0.6395705995E-04       4    7    1        -0.3556719584E-02      0.7619204524E-02

    ------------------------------------------------
       NWT REQUIRED            3 OUTER ITERATIONS 
       AND A TOTAL OF          5 INNER ITERATIONS.
    ------------------------------------------------

 NO OUTPUT CONTROL FOR STRESS PERIOD   18   TIME STEP   30



 STREAM LISTING     PERIOD     18   STEP       30

 LAYER ROW COL. STREAM  RCH.  FLOW INTO     FLOW TO   FLOW OUT OF   OVRLND.     DIRECT     STREAM       STREAM     STREAM     STREAM   STREAMBED  STREAMBED
                SEG.NO.  NO.  STRM. RCH.    AQUIFER    STRM. RCH.    RUNOFF     PRECIP       ET          HEAD       DEPTH      WIDTH   CONDCTNC.   GRADIENT

   1    1    1     1     1    2.3625E+01  2.3872E-01   2.3387E+01  0.000E+00  0.000E+00  0.000E+00  1.09421E+03  1.157E+00  1.276E+01  5.742E-02  1.386E+00
   1    2    2     1     2    2.3387E+01  3.6909E-01   2.3018E+01  0.000E+00  0.000E+00  0.000E+00  1.08921E+03  1.153E+00  1.270E+01  8.888E-02  1.384E+00
   1    3    3     1     3    2.3018E+01  3.1418E-01   2.2703E+01  0.000E+00  0.000E+00  0.000E+00  1.08357E+03  1.147E+00  1.263E+01  7.575E-02  1.382E+00
   1    3    4     1     4    2.2703E+01  2.8882E-01   2.2415E+01  0.000E+00  0.000E+00  0.000E+00  1.07855E+03  1.143E+00  1.256E+01  6.972E-02  1.381E+00
   1    4    5     2     1    2.0415E+01  3.1702E-01   2.0098E+01  0.000E+00  0.000E+00  0.000E+00  1.07300E+03  1.064E+00  1.200E+01  7.800E-02  1.355E+00
   1    5    6     2     2    2.0098E+01  2.4333E-01   1.9854E+01  0.000E+00  0.000E+00  0.000E+00  1.06756E+03  1.055E+00  1.200E+01  6.000E-02  1.352E+00
   1    6    6     2     3    1.9854E+01  2.4286E-01   1.9611E+01  0.000E+00  0.000E+00  0.000E+00  1.06284E+03  1.048E+00  1.200E+01  6.000E-02  1.349E+00
   1    7    6     2     4    1.9611E+01  2.4240E-01   1.9369E+01  0.000E+00  0.000E+00  0.000E+00  1.05812E+03  1.040E+00  1.200E+01  6.000E-02  1.347E+00
   1    8    6     2     5    1.9369E+01  2.4193E-01   1.9127E+01  0.000E+00  0.000E+00  0.000E+00  1.05339E+03  1.032E+00  1.200E+01  6.000E-02  1.344E+00
   1    3    5     3     1    2.0000E+00  2.8252E-01   1.7175E+00  0.000E+00  0.000E+00  0.000E+00  1.07555E+03  1.909E+00  9.636E+00  7.227E-02  1.955E+00
   1    3    6     3     2    1.7175E+00  2.4905E-01   1.4684E+00  0.000E+00  0.000E+00  0.000E+00  1.07264E+03  1.727E+00  8.909E+00  6.682E-02  1.864E+00
   1    3    7     3     3    1.4684E+00  1.9718E-01   1.2712E+00  0.000E+00  0.000E+00  0.000E+00  1.06987E+03  1.555E+00  8.218E+00  5.547E-02  1.777E+00
   1    4    8     3     4    1.2712E+00  2.2567E-01   1.0456E+00  0.000E+00  0.000E+00  0.000E+00  1.06682E+03  1.364E+00  7.455E+00  6.709E-02  1.682E+00
   1    5    8     3     5    1.0456E+00  1.5790E-01   8.8768E-01  0.000E+00  0.000E+00  0.000E+00  1.06362E+03  1.164E+00  6.655E+00  4.991E-02  1.582E+00
   1    6    8     3     6    8.8768E-01  5.5980E-02   8.3170E-01  0.000E+00  0.000E+00  0.000E+00  1.06158E+03  1.036E+00  6.145E+00  1.844E-02  1.518E+00
   1    5   10     4     1    1.0000E+01  9.0919E-02   9.9091E+00  0.000E+00  0.000E+00  0.000E+00  1.07836E+03  6.368E-01  1.000E+01  2.500E-02  1.212E+00
   1    5    9     4     2    9.9091E+00  1.8158E-01   9.7275E+00  0.000E+00  0.000E+00  0.000E+00  1.07154E+03  6.315E-01  1.000E+01  5.000E-02  1.211E+00
   1    6    8     4     3    9.7275E+00  1.2689E-01   9.6006E+00  0.000E+00  0.000E+00  0.000E+00  1.06381E+03  6.256E-01  1.000E+01  3.500E-02  1.209E+00
   1    6    8     5     1    1.0432E+01  2.2686E-01   1.0205E+01  0.000E+00  0.000E+00  0.000E+00  1.05868E+03  6.790E-01  1.542E+01  6.166E-02  1.226E+00
   1    7    7     5     2    1.0205E+01  2.7894E-01   9.9265E+00  0.000E+00  0.000E+00  0.000E+00  1.05417E+03  6.732E-01  1.519E+01  7.594E-02  1.224E+00
   1    8    7     5     3    9.9265E+00  1.9221E-01   9.7343E+00  0.000E+00  0.000E+00  0.000E+00  1.04992E+03  6.676E-01  1.497E+01  5.241E-02  1.223E+00
   1    8    6     5     4    9.7343E+00  1.3577E-01   9.5985E+00  0.000E+00  0.000E+00  0.000E+00  1.04691E+03  6.637E-01  1.482E+01  3.706E-02  1.221E+00
   1    9    6     6     1    2.8726E+01  2.5942E-01   2.8466E+01  0.000E+00  0.000E+00  0.000E+00  1.04405E+03  1.324E+00  1.200E+01  6.000E-02  1.441E+00
   1   10    7     6     2    2.8466E+01  2.5898E-01   2.8207E+01  0.000E+00  0.000E+00  0.000E+00  1.03950E+03  1.316E+00  1.200E+01  6.000E-02  1.439E+00
   1   11    7     6     3    2.8207E+01  2.5855E-01   2.7949E+01  0.000E+00  0.000E+00  0.000E+00  1.03495E+03  1.309E+00  1.200E+01  6.000E-02  1.436E+00
   1   12    7     6     4    2.7949E+01  2.5811E-01   2.7690E+01  0.000E+00  0.000E+00  0.000E+00  1.03039E+03  1.302E+00  1.200E+01  6.000E-02  1.434E+00
   1   13    7     6     5    2.7690E+01  1.1132E-02   2.7679E+01  0.000E+00  0.000E+00  0.000E+00  1.02721E+03  1.298E+00  1.200E+01  2.400E-02  1.546E-01
   1   14    9     7     1    1.5000E+02  1.3712E+00   1.4863E+02  0.000E+00  0.000E+00  0.000E+00  1.03987E+03  2.288E+00  5.529E+01  5.593E-01  8.172E-01
   1   13    8     7     2    1.4863E+02  1.9411E+00   1.4669E+02  0.000E+00  0.000E+00  0.000E+00  1.03478E+03  2.279E+00  5.525E+01  6.147E-01  1.053E+00
   1   13    7     7     3    1.4669E+02  1.6446E+00   1.4504E+02  0.000E+00  0.000E+00  0.000E+00  1.02969E+03  2.269E+00  5.521E+01  5.584E-01  9.817E-01
   1   13    6     8     1    1.7272E+02  1.0980E+00   1.7162E+02  0.000E+00  0.000E+00  0.000E+00  1.02484E+03  2.966E+00  4.301E+01  4.383E-01  8.350E-01
   1   13    5     8     2    1.7162E+02  3.3016E-01   1.7129E+02  0.000E+00  0.000E+00  0.000E+00  1.01859E+03  2.962E+00  4.294E+01  4.376E-01  2.515E-01
   1   13    4     8     3    1.7129E+02 -1.9390E+00   1.7323E+02  0.000E+00  0.000E+00  0.000E+00  1.01234E+03  2.967E+00  4.302E+01  4.384E+00 -1.474E-01
   1   13    3     8     4    1.7323E+02 -3.4121E+00   1.7665E+02  0.000E+00  0.000E+00  0.000E+00  1.00611E+03  2.984E+00  4.327E+01  4.409E+00 -2.580E-01
   1   13    2     8     5    1.7665E+02 -2.5231E+00   1.7917E+02  0.000E+00  0.000E+00  0.000E+00  9.99878E+02  3.003E+00  4.354E+01  4.437E+00 -1.895E-01
   1   13    1     8     6    1.7917E+02 -1.9763E+00   1.8114E+02  0.000E+00  0.000E+00  0.000E+00  9.94892E+02  3.017E+00  4.375E+01  2.675E+00 -2.463E-01
   1    8    6     9     1    0.0000E+00  0.0000E+00   0.0000E+00  0.000E+00  0.000E+00  0.000E+00  1.07875E+03  0.000E+00  4.000E+00  0.000E+00  1.000E+00
   1    8    5     9     2    0.0000E+00  0.0000E+00   0.0000E+00  0.000E+00  0.000E+00  0.000E+00  1.07825E+03  0.000E+00  4.000E+00  0.000E+00  1.000E+00





UNSATURATED ZONE PACKAGE VOLUMETRIC BUDGET FOR  TIME STEP    30 STRESS PERIOD   18
  ------------------------------------------------------------------------------



     CUMULATIVE VOLUMES      L**3       RATES FOR THIS TIME STEP      L**3/T
     ------------------                 ------------------------

           IN:                                      IN:
           ---                                      ---
        INFILTRATION =   471284278.8268          INFILTRATION =           8.3175

          OUT:                                     OUT:
          ----                                     ----
              UZF ET =   470538811.2827                UZF ET =           8.3175
        UZF RECHARGE =       73224.0000          UZF RECHARGE =       0.0000E+00

            IN - OUT =      672243.5441              IN - OUT =       0.0000E+00

          STORAGE:                                 STORAGE:
          --------                                 --------
      STORAGE CHANGE =      672243.4909        STORAGE CHANGE =       1.6599E-15

 PERCENT DISCREPANCY IS DIFFERENCE BETWEEN IN-OUT MINUS CHANGE IN STORAGE
 DIVIDED BY THE AVERAGE OF IN AND OUT TIMES 100

 PERCENT DISCREPANCY =           0.00     PERCENT DISCREPANCY =           0.00






1
  VOLUMETRIC BUDGET FOR AGRICULTURAL FIELDS AT  END OF TIME STEP   30, STRESS PERIOD  18
  ------------------------------------------------------------------------------

     CUMULATIVE VOLUMES      L**3       RATES FOR THIS TIME STEP      L**3/T
     ------------------                 ------------------------

           IN:                                      IN:
           ---                                      ---
               AG WELLS  =   433319104.0000                 AG WELLS  =           7.4700
      DIVERSION SEGMENTS =           0.0000        DIVERSION SEGMENTS =           0.0000
       IRRIGATION PONDS  =           0.0000         IRRIGATION PONDS  =           0.0000
           GW IRRIGATION =           0.0000             GW IRRIGATION =           0.0000
           SW IRRIGATION =           0.0000             SW IRRIGATION =           0.0000
        SYSTEM LOSSES GW =           0.0000          SYSTEM LOSSES GW =           0.0000
        SYSTEM LOSSES SW =           0.0000          SYSTEM LOSSES SW =           0.0000

                TOTAL IN =   433319104.0000                  TOTAL IN =           7.4700

          OUT:                                     OUT:
          ----                                     ----
               AG WELLS  =           0.0000                 AG WELLS  =           0.0000
      DIVERSION SEGMENTS =           0.0000        DIVERSION SEGMENTS =           0.0000
       IRRIGATION PONDS  =           0.0000         IRRIGATION PONDS  =           0.0000
           GW IRRIGATION =   433319104.0000             GW IRRIGATION =           7.4700
           SW IRRIGATION =           0.0000             SW IRRIGATION =           0.0000
        SYSTEM LOSSES GW =           0.0000          SYSTEM LOSSES GW =           0.0000
        SYSTEM LOSSES SW =           0.0000          SYSTEM LOSSES SW =           0.0000

               TOTAL OUT =   433319104.0000                 TOTAL OUT =           7.4700

                IN - OUT =           0.0000                  IN - OUT =           0.0000

     PERCENT DISCREPANCY =           0.00         PERCENT DISCREPANCY =           0.00



1
  VOLUMETRIC BUDGET FOR ENTIRE MODEL AT END OF TIME STEP   30, STRESS PERIOD  18
  ------------------------------------------------------------------------------

     CUMULATIVE VOLUMES      L**3       RATES FOR THIS TIME STEP      L**3/T
     ------------------                 ------------------------

           IN:                                      IN:
           ---                                      ---
             STORAGE     =   585619904.0000               STORAGE     =           5.3787
       CONSTANT HEAD     =           0.0000         CONSTANT HEAD     =           0.0000
     HEAD DEP BOUNDS     =    12899394.0000       HEAD DEP BOUNDS     =           0.2882
      STREAM LEAKAGE     =   531355072.0000        STREAM LEAKAGE     =          12.3310
        UZF RECHARGE     =       73223.9531          UZF RECHARGE     =           0.0000
               GW ET     =           0.0000                 GW ET     =           0.0000
     SURFACE LEAKAGE     =           0.0000       SURFACE LEAKAGE     =           0.0000
           AG WELLS      =           0.0000             AG WELLS      =           0.0000

                TOTAL IN =  1129947648.0000                  TOTAL IN =          17.9978

          OUT:                                     OUT:
          ----                                     ----
             STORAGE     =   229681968.0000               STORAGE     =           0.3859
       CONSTANT HEAD     =           0.0000         CONSTANT HEAD     =           0.0000
     HEAD DEP BOUNDS     =    12952000.0000       HEAD DEP BOUNDS     =           0.2900
      STREAM LEAKAGE     =   453996256.0000        STREAM LEAKAGE     =           9.8505
        UZF RECHARGE     =           0.0000          UZF RECHARGE     =           0.0000
               GW ET     =           0.0000                 GW ET     =           0.0000
     SURFACE LEAKAGE     =           0.0000       SURFACE LEAKAGE     =           0.0000
           AG WELLS      =   433319104.0000             AG WELLS      =           7.4700

               TOTAL OUT =  1129949312.0000                 TOTAL OUT =          17.9964

                IN - OUT =       -1664.0000                  IN - OUT =       1.4324E-03

     PERCENT DISCREPANCY =          -0.00         PERCENT DISCREPANCY =           0.01






         TIME SUMMARY AT END OF TIME STEP   30 IN STRESS PERIOD   18
                    SECONDS     MINUTES      HOURS       DAYS        YEARS
                    -----------------------------------------------------------
   TIME STEP LENGTH  87667.      1461.1      24.352      1.0147     2.77799E-03
 STRESS PERIOD TIME 2.63000E+06  43833.      730.56      30.440     8.33397E-02
         TOTAL TIME 4.47965E+07 7.46608E+05  12443.      518.48      1.4195    
1
1
                            STRESS PERIOD NO.   19, LENGTH =   2630000.    
                            -----------------------------------------------

                              NUMBER OF TIME STEPS =    30

                               MULTIPLIER FOR DELT =     1.000

                            INITIAL TIME STEP SIZE =   87666.66    

 REUSING NON-PARAMETER GHB CELLS FROM LAST STRESS PERIOD

      2 GHB CELLS

 REUSING STREAM SEGMENT DATA FROM LAST STRESS PERIOD



            AREAL INFILTRATION RATE
 READING ON UNIT   19 WITH FORMAT: (FREE)              

            1           2           3           4           5           6           7           8           9          10
 ........................................................................................................................
   1   1.0000E-10  2.0000E-10   0.000       0.000       0.000       0.000       0.000       0.000       0.000       0.000    
   2   2.0000E-10  1.0000E-10  2.0000E-10   0.000       0.000      8.0000E-10  8.0000E-10  5.0000E-10   0.000       0.000    
   3    0.000      5.0000E-10  1.0000E-10  1.0000E-10  8.0000E-10  8.0000E-10  5.0000E-10  5.0000E-10   0.000       0.000    
   4   8.0000E-10  5.0000E-10  1.0000E-10  1.0000E-10  1.0000E-10  1.0000E-10  1.0000E-10  1.0000E-10  2.0000E-10   0.000    
   5   8.0000E-10  5.0000E-10  1.0000E-10  1.0000E-10  1.0000E-10  1.0000E-10  1.0000E-10  1.0000E-10  1.0000E-10  1.0000E-10
   6   8.0000E-10  5.0000E-10  5.0000E-10  2.0000E-10  2.0000E-10  1.0000E-10  1.0000E-10  1.0000E-10  1.0000E-10  5.0000E-10
   7   8.0000E-10  5.0000E-10  5.0000E-10  2.0000E-10  2.0000E-10  1.0000E-10  1.0000E-10  2.0000E-10  2.0000E-10   0.000    
   8    0.000      5.0000E-10  5.0000E-10  2.0000E-10  2.0000E-10  1.0000E-10  1.0000E-10  2.0000E-10  5.0000E-10   0.000    
   9    0.000      5.0000E-10  5.0000E-10  2.0000E-10  2.0000E-10  1.0000E-10  1.0000E-10  2.0000E-10  5.0000E-10   0.000    
  10    0.000      5.0000E-10  5.0000E-10  2.0000E-10  2.0000E-10  1.0000E-10  1.0000E-10  2.0000E-10  5.0000E-10  8.0000E-10
  11    0.000      1.0000E-10  1.0000E-10  1.0000E-10  1.0000E-10  1.0000E-10  1.0000E-10  2.0000E-10  5.0000E-10   0.000    
  12   1.0000E-10  1.0000E-10  1.0000E-10  1.0000E-10  1.0000E-10  1.0000E-10  1.0000E-10  1.0000E-10  2.0000E-10   0.000    
  13   1.0000E-10  1.0000E-10  2.0000E-10  2.0000E-10  2.0000E-10  2.0000E-10  2.0000E-10  1.0000E-10  1.0000E-10   0.000    
  14    0.000      2.0000E-10  5.0000E-10  5.0000E-10  5.0000E-10  5.0000E-10  5.0000E-10  2.0000E-10  1.0000E-10   0.000    
  15    0.000       0.000      8.0000E-10  8.0000E-10  8.0000E-10  8.0000E-10   0.000       0.000       0.000       0.000    

                  ET RATE =  1.500000E-07

 USING ET EXTINCTION DEPTH FROM PREVIOUS STRESS PERIOD. CURRENT PERIOD IS:      19

 USING EXTINCTION WATER CONTENT FROM PREVIOUS STRESS PERIOD. CURRENT PERIOD IS:      19

 USING AIR ENTRY PRESSURE FROM PREVIOUS STRESS PERIOD. CURRENT PERIOD IS:      19

 USING ROOT PRESSURE HEAD FROM PREVIOUS STRESS PERIOD. CURRENT PERIOD IS:      19

 USING ROOT ACTIVITY FROM PREVIOUS STRESS PERIOD. CURRENT PERIOD IS:      19

 PROCESSING AG STRESS PERIOD DATA

 READING AG STRESS PERIOD DATA

 READING IRRIGATION SEGMENT

 READING IRRIGATION WELL

 READING SUPPLEMENTAL WELL

 NO IRRPOND OR REUSING IRRPOND DATA FROM LAST STRESS PERIOD

 END PROCESSING AG STRESS PERIOD DATA OPTIONS
 
 SOLVING FOR HEAD 
                                                   Max.-Head-Change                         Max.-Flux-Residual
  Residual-Control   Outer-Iter.   Inner-Iter.     Column Row Layer    Maximum-Head-Change  Column Row Layer    Maximum-Flux-Residual          L2-NORM 
          0                 1           2             4    7     1      -0.5741841451E-01       4    7    1        -0.3001684077E+01      0.7121603599E+01
          0                 2           2             4    7     1       0.5585218999E-02       4    7    1         0.3001666936E+00      0.7121495357E+00
          0                 3           2             4    7     1      -0.3803329723E-03       4    7    1        -0.2101169385E-01      0.4985021840E-01
          0                 4           1             4    7     1       0.1513380340E-04       4    7    1         0.8593793968E-03      0.2038927889E-02

    ------------------------------------------------
       NWT REQUIRED            4 OUTER ITERATIONS 
       AND A TOTAL OF          7 INNER ITERATIONS.
    ------------------------------------------------

 OUTPUT CONTROL FOR STRESS PERIOD   19   TIME STEP    1
    PRINT BUDGET
    SAVE BUDGET
 UBDSV1 SAVING "         STORAGE" ON UNIT 102 AT TIME STEP 1, STRESS PERIOD 19
 UBDSV2 SAVING "   CONSTANT HEAD" ON UNIT 102 AT TIME STEP 1, STRESS PERIOD 19
 UBDSV1 SAVING "FLOW RIGHT FACE " ON UNIT 102 AT TIME STEP 1, STRESS PERIOD 19
 UBDSV1 SAVING "FLOW FRONT FACE " ON UNIT 102 AT TIME STEP 1, STRESS PERIOD 19

  HEAD DEP BOUNDS   PERIOD   19   STEP     1
 BOUNDARY      1   LAYER   1   ROW    13   COL     1   RATE   -0.289954    
 BOUNDARY      2   LAYER   1   ROW    14   COL     9   RATE    0.288167    



 STREAM LISTING     PERIOD     19   STEP        1

 LAYER ROW COL. STREAM  RCH.  FLOW INTO     FLOW TO   FLOW OUT OF   OVRLND.     DIRECT     STREAM       STREAM     STREAM     STREAM   STREAMBED  STREAMBED
                SEG.NO.  NO.  STRM. RCH.    AQUIFER    STRM. RCH.    RUNOFF     PRECIP       ET          HEAD       DEPTH      WIDTH   CONDCTNC.   GRADIENT

   1    1    1     1     1    2.1826E+01  2.3002E-01   2.1596E+01  0.000E+00  0.000E+00  0.000E+00  1.09418E+03  1.129E+00  1.238E+01  5.571E-02  1.376E+00
   1    2    2     1     2    2.1596E+01  3.5556E-01   2.1240E+01  0.000E+00  0.000E+00  0.000E+00  1.08918E+03  1.124E+00  1.232E+01  8.622E-02  1.375E+00
   1    3    3     1     3    2.1240E+01  3.0257E-01   2.0938E+01  0.000E+00  0.000E+00  0.000E+00  1.08354E+03  1.119E+00  1.224E+01  7.347E-02  1.373E+00
   1    3    4     1     4    2.0938E+01  2.7808E-01   2.0660E+01  0.000E+00  0.000E+00  0.000E+00  1.07852E+03  1.114E+00  1.218E+01  6.760E-02  1.371E+00
   1    4    5     2     1    1.8660E+01  3.1263E-01   1.8347E+01  0.000E+00  0.000E+00  0.000E+00  1.07294E+03  1.008E+00  1.200E+01  7.800E-02  1.336E+00
   1    5    6     2     2    1.8347E+01  2.3994E-01   1.8107E+01  0.000E+00  0.000E+00  0.000E+00  1.06751E+03  9.990E-01  1.200E+01  6.000E-02  1.333E+00
   1    6    6     2     3    1.8107E+01  2.3947E-01   1.7868E+01  0.000E+00  0.000E+00  0.000E+00  1.06278E+03  9.911E-01  1.200E+01  6.000E-02  1.330E+00
   1    7    6     2     4    1.7868E+01  2.3899E-01   1.7629E+01  0.000E+00  0.000E+00  0.000E+00  1.05806E+03  9.832E-01  1.200E+01  6.000E-02  1.328E+00
   1    8    6     2     5    1.7629E+01  2.3851E-01   1.7390E+01  0.000E+00  0.000E+00  0.000E+00  1.05333E+03  9.752E-01  1.200E+01  6.000E-02  1.325E+00
   1    3    5     3     1    2.0000E+00  2.8252E-01   1.7175E+00  0.000E+00  0.000E+00  0.000E+00  1.07555E+03  1.909E+00  9.636E+00  7.227E-02  1.955E+00
   1    3    6     3     2    1.7175E+00  2.4905E-01   1.4684E+00  0.000E+00  0.000E+00  0.000E+00  1.07264E+03  1.727E+00  8.909E+00  6.682E-02  1.864E+00
   1    3    7     3     3    1.4684E+00  1.9718E-01   1.2712E+00  0.000E+00  0.000E+00  0.000E+00  1.06987E+03  1.555E+00  8.218E+00  5.547E-02  1.777E+00
   1    4    8     3     4    1.2712E+00  2.2567E-01   1.0456E+00  0.000E+00  0.000E+00  0.000E+00  1.06682E+03  1.364E+00  7.455E+00  6.709E-02  1.682E+00
   1    5    8     3     5    1.0456E+00  1.5790E-01   8.8768E-01  0.000E+00  0.000E+00  0.000E+00  1.06362E+03  1.164E+00  6.655E+00  4.991E-02  1.582E+00
   1    6    8     3     6    8.8768E-01  5.5980E-02   8.3170E-01  0.000E+00  0.000E+00  0.000E+00  1.06158E+03  1.036E+00  6.145E+00  1.844E-02  1.518E+00
   1    5   10     4     1    1.0000E+01  9.0919E-02   9.9091E+00  0.000E+00  0.000E+00  0.000E+00  1.07836E+03  6.368E-01  1.000E+01  2.500E-02  1.212E+00
   1    5    9     4     2    9.9091E+00  1.8158E-01   9.7275E+00  0.000E+00  0.000E+00  0.000E+00  1.07154E+03  6.315E-01  1.000E+01  5.000E-02  1.211E+00
   1    6    8     4     3    9.7275E+00  1.2689E-01   9.6006E+00  0.000E+00  0.000E+00  0.000E+00  1.06381E+03  6.256E-01  1.000E+01  3.500E-02  1.209E+00
   1    6    8     5     1    1.0432E+01  2.2686E-01   1.0205E+01  0.000E+00  0.000E+00  0.000E+00  1.05868E+03  6.790E-01  1.542E+01  6.166E-02  1.226E+00
   1    7    7     5     2    1.0205E+01  2.7894E-01   9.9265E+00  0.000E+00  0.000E+00  0.000E+00  1.05417E+03  6.732E-01  1.519E+01  7.594E-02  1.224E+00
   1    8    7     5     3    9.9265E+00  1.9221E-01   9.7343E+00  0.000E+00  0.000E+00  0.000E+00  1.04992E+03  6.676E-01  1.497E+01  5.241E-02  1.223E+00
   1    8    6     5     4    9.7343E+00  1.3577E-01   9.5985E+00  0.000E+00  0.000E+00  0.000E+00  1.04691E+03  6.637E-01  1.482E+01  3.706E-02  1.221E+00
   1    9    6     6     1    2.6989E+01  2.5649E-01   2.6732E+01  0.000E+00  0.000E+00  0.000E+00  1.04400E+03  1.275E+00  1.200E+01  6.000E-02  1.425E+00
   1   10    7     6     2    2.6732E+01  2.5605E-01   2.6476E+01  0.000E+00  0.000E+00  0.000E+00  1.03945E+03  1.267E+00  1.200E+01  6.000E-02  1.422E+00
   1   11    7     6     3    2.6476E+01  2.5561E-01   2.6220E+01  0.000E+00  0.000E+00  0.000E+00  1.03490E+03  1.260E+00  1.200E+01  6.000E-02  1.420E+00
   1   12    7     6     4    2.6220E+01  2.5517E-01   2.5965E+01  0.000E+00  0.000E+00  0.000E+00  1.03034E+03  1.253E+00  1.200E+01  6.000E-02  1.418E+00
   1   13    7     6     5    2.5965E+01  9.9637E-03   2.5955E+01  0.000E+00  0.000E+00  0.000E+00  1.02716E+03  1.249E+00  1.200E+01  2.400E-02  1.384E-01
   1   14    9     7     1    1.5000E+02  1.3712E+00   1.4863E+02  0.000E+00  0.000E+00  0.000E+00  1.03987E+03  2.288E+00  5.529E+01  5.593E-01  8.172E-01
   1   13    8     7     2    1.4863E+02  1.9412E+00   1.4669E+02  0.000E+00  0.000E+00  0.000E+00  1.03478E+03  2.279E+00  5.525E+01  6.147E-01  1.053E+00
   1   13    7     7     3    1.4669E+02  1.6448E+00   1.4504E+02  0.000E+00  0.000E+00  0.000E+00  1.02969E+03  2.269E+00  5.521E+01  5.584E-01  9.819E-01
   1   13    6     8     1    1.7100E+02  1.0893E+00   1.6991E+02  0.000E+00  0.000E+00  0.000E+00  1.02483E+03  2.955E+00  4.285E+01  4.367E-01  8.315E-01
   1   13    5     8     2    1.6991E+02  3.2431E-01   1.6958E+02  0.000E+00  0.000E+00  0.000E+00  1.01858E+03  2.951E+00  4.278E+01  4.360E-01  2.480E-01
   1   13    4     8     3    1.6958E+02 -1.9760E+00   1.7156E+02  0.000E+00  0.000E+00  0.000E+00  1.01233E+03  2.956E+00  4.286E+01  4.368E+00 -1.508E-01
   1   13    3     8     4    1.7156E+02 -3.4435E+00   1.7500E+02  0.000E+00  0.000E+00  0.000E+00  1.00610E+03  2.973E+00  4.312E+01  4.394E+00 -2.612E-01
   1   13    2     8     5    1.7500E+02 -2.5566E+00   1.7756E+02  0.000E+00  0.000E+00  0.000E+00  9.99868E+02  2.993E+00  4.339E+01  4.422E+00 -1.927E-01
   1   13    1     8     6    1.7756E+02 -1.9949E+00   1.7956E+02  0.000E+00  0.000E+00  0.000E+00  9.94882E+02  3.007E+00  4.360E+01  2.666E+00 -2.494E-01
   1    8    6     9     1    0.0000E+00  0.0000E+00   0.0000E+00  0.000E+00  0.000E+00  0.000E+00  1.07875E+03  0.000E+00  4.000E+00  0.000E+00  1.000E+00
   1    8    5     9     2    0.0000E+00  0.0000E+00   0.0000E+00  0.000E+00  0.000E+00  0.000E+00  1.07825E+03  0.000E+00  4.000E+00  0.000E+00  1.000E+00



 UBDSV3 SAVING "           GW ET" ON UNIT  61 AT TIME STEP 1, STRESS PERIOD 19
 UBDSV3 SAVING "    UZF RECHARGE" ON UNIT  61 AT TIME STEP 1, STRESS PERIOD 19
 UBDSV3 SAVING " SURFACE LEAKAGE" ON UNIT  61 AT TIME STEP 1, STRESS PERIOD 19
 UBDSV3 SAVING "       HORT+DUNN" ON UNIT  61 AT TIME STEP 1, STRESS PERIOD 19
 UBDSV3 SAVING "  STORAGE CHANGE" ON UNIT  61 AT TIME STEP 1, STRESS PERIOD 19


UNSATURATED ZONE PACKAGE VOLUMETRIC BUDGET FOR  TIME STEP     1 STRESS PERIOD   19
  ------------------------------------------------------------------------------



     CUMULATIVE VOLUMES      L**3       RATES FOR THIS TIME STEP      L**3/T
     ------------------                 ------------------------

           IN:                                      IN:
           ---                                      ---
        INFILTRATION =   473328446.3227          INFILTRATION =          23.3175

          OUT:                                     OUT:
          ----                                     ----
              UZF ET =   472582978.7786                UZF ET =          23.3175
        UZF RECHARGE =       73224.0000          UZF RECHARGE =       0.0000E+00

            IN - OUT =      672243.5441              IN - OUT =       0.0000E+00

          STORAGE:                                 STORAGE:
          --------                                 --------
      STORAGE CHANGE =      672243.4909        STORAGE CHANGE =       1.6599E-16

 PERCENT DISCREPANCY IS DIFFERENCE BETWEEN IN-OUT MINUS CHANGE IN STORAGE
 DIVIDED BY THE AVERAGE OF IN AND OUT TIMES 100

 PERCENT DISCREPANCY =           0.00     PERCENT DISCREPANCY =           0.00






 

            AG WELLS      PERIOD   19   STEP   1
 AG WELL      1   LAYER   1   ROW     6   COL     4   RATE    -3.74500    
 AG WELL      2   LAYER   1   ROW     6   COL     5   RATE    -3.74500    
 AG WELL      3   LAYER   1   ROW     7   COL     4   RATE    -3.74500    
 AG WELL      4   LAYER   1   ROW     7   COL     5   RATE    -3.74500    
 AG WELL      5   LAYER   1   ROW     8   COL     4   RATE    -3.74500    
 AG WELL      6   LAYER   1   ROW     8   COL     5   RATE    -3.74500    
 
 

   DIVERSION SEGMENTS     PERIOD   19   STEP   1
 SEGMENT      9   RATE     0.00000    
 
 

        SW IRRIGATION     PERIOD   19   STEP   1
 SEGMENT      9   ROW     6   COL     4   RATE     0.00000    
 SEGMENT      9   ROW     6   COL     5   RATE     0.00000    
 SEGMENT      9   ROW     7   COL     4   RATE     0.00000    
 SEGMENT      9   ROW     7   COL     5   RATE     0.00000    
 SEGMENT      9   ROW     8   COL     4   RATE     0.00000    
 SEGMENT      9   ROW     8   COL     5   RATE     0.00000    
 
 

        GW IRRIGATION     PERIOD   19   STEP   1
 AG WELL      1   ROW     6   COL     4   RATE     3.74500    
 AG WELL      2   ROW     6   COL     5   RATE     3.74500    
 AG WELL      3   ROW     7   COL     4   RATE     3.74500    
 AG WELL      4   ROW     7   COL     5   RATE     3.74500    
 AG WELL      5   ROW     8   COL     4   RATE     3.74500    
 AG WELL      6   ROW     8   COL     5   RATE     3.74500    
 
1
  VOLUMETRIC BUDGET FOR AGRICULTURAL FIELDS AT  END OF TIME STEP    1, STRESS PERIOD  19
  ------------------------------------------------------------------------------

     CUMULATIVE VOLUMES      L**3       RATES FOR THIS TIME STEP      L**3/T
     ------------------                 ------------------------

           IN:                                      IN:
           ---                                      ---
               AG WELLS  =   435288960.0000                 AG WELLS  =          22.4700
      DIVERSION SEGMENTS =           0.0000        DIVERSION SEGMENTS =           0.0000
       IRRIGATION PONDS  =           0.0000         IRRIGATION PONDS  =           0.0000
           GW IRRIGATION =           0.0000             GW IRRIGATION =           0.0000
           SW IRRIGATION =           0.0000             SW IRRIGATION =           0.0000
        SYSTEM LOSSES GW =           0.0000          SYSTEM LOSSES GW =           0.0000
        SYSTEM LOSSES SW =           0.0000          SYSTEM LOSSES SW =           0.0000

                TOTAL IN =   435288960.0000                  TOTAL IN =          22.4700

          OUT:                                     OUT:
          ----                                     ----
               AG WELLS  =           0.0000                 AG WELLS  =           0.0000
      DIVERSION SEGMENTS =           0.0000        DIVERSION SEGMENTS =           0.0000
       IRRIGATION PONDS  =           0.0000         IRRIGATION PONDS  =           0.0000
           GW IRRIGATION =   435288960.0000             GW IRRIGATION =          22.4700
           SW IRRIGATION =           0.0000             SW IRRIGATION =           0.0000
        SYSTEM LOSSES GW =           0.0000          SYSTEM LOSSES GW =           0.0000
        SYSTEM LOSSES SW =           0.0000          SYSTEM LOSSES SW =           0.0000

               TOTAL OUT =   435288960.0000                 TOTAL OUT =          22.4700

                IN - OUT =           0.0000                  IN - OUT =           0.0000

     PERCENT DISCREPANCY =           0.00         PERCENT DISCREPANCY =           0.00



1
  VOLUMETRIC BUDGET FOR ENTIRE MODEL AT END OF TIME STEP    1, STRESS PERIOD  19
  ------------------------------------------------------------------------------

     CUMULATIVE VOLUMES      L**3       RATES FOR THIS TIME STEP      L**3/T
     ------------------                 ------------------------

           IN:                                      IN:
           ---                                      ---
             STORAGE     =   587418880.0000               STORAGE     =          20.5204
       CONSTANT HEAD     =           0.0000         CONSTANT HEAD     =           0.0000
     HEAD DEP BOUNDS     =    12924657.0000       HEAD DEP BOUNDS     =           0.2882
      STREAM LEAKAGE     =   532428224.0000        STREAM LEAKAGE     =          12.2414
        UZF RECHARGE     =       73223.9531          UZF RECHARGE     =           0.0000
               GW ET     =           0.0000                 GW ET     =           0.0000
     SURFACE LEAKAGE     =           0.0000       SURFACE LEAKAGE     =           0.0000
           AG WELLS      =           0.0000             AG WELLS      =           0.0000

                TOTAL IN =  1132845056.0000                  TOTAL IN =          33.0500

          OUT:                                     OUT:
          ----                                     ----
             STORAGE     =   229709952.0000               STORAGE     =           0.3191
       CONSTANT HEAD     =           0.0000         CONSTANT HEAD     =           0.0000
     HEAD DEP BOUNDS     =    12977419.0000       HEAD DEP BOUNDS     =           0.2900
      STREAM LEAKAGE     =   454870368.0000        STREAM LEAKAGE     =           9.9710
        UZF RECHARGE     =           0.0000          UZF RECHARGE     =           0.0000
               GW ET     =           0.0000                 GW ET     =           0.0000
     SURFACE LEAKAGE     =           0.0000       SURFACE LEAKAGE     =           0.0000
           AG WELLS      =   435288960.0000             AG WELLS      =          22.4700

               TOTAL OUT =  1132846720.0000                 TOTAL OUT =          33.0500

                IN - OUT =       -1664.0000                  IN - OUT =      -6.8665E-05

     PERCENT DISCREPANCY =          -0.00         PERCENT DISCREPANCY =          -0.00






         TIME SUMMARY AT END OF TIME STEP    1 IN STRESS PERIOD   19
                    SECONDS     MINUTES      HOURS       DAYS        YEARS
                    -----------------------------------------------------------
   TIME STEP LENGTH  87667.      1461.1      24.352      1.0147     2.77799E-03
 STRESS PERIOD TIME  87667.      1461.1      24.352      1.0147     2.77799E-03
         TOTAL TIME 4.48841E+07 7.48069E+05  12468.      519.49      1.4223    
1
 
 SOLVING FOR HEAD 
                                                   Max.-Head-Change                         Max.-Flux-Residual
  Residual-Control   Outer-Iter.   Inner-Iter.     Column Row Layer    Maximum-Head-Change  Column Row Layer    Maximum-Flux-Residual          L2-NORM 
          0                 1           2             4    7     1      -0.5704640370E-01       4    7    1        -0.2983371282E+01      0.6999499964E+01
          0                 2           2             4    7     1       0.5549030123E-02       4    7    1         0.2983352496E+00      0.6999396386E+00
          0                 3           2             4    7     1      -0.3778686670E-03       4    7    1        -0.2088349428E-01      0.4899553913E-01
          0                 4           1             4    7     1       0.1503574635E-04       4    7    1         0.8541360075E-03      0.2003900962E-02

    ------------------------------------------------
       NWT REQUIRED            4 OUTER ITERATIONS 
       AND A TOTAL OF          7 INNER ITERATIONS.
    ------------------------------------------------

 NO OUTPUT CONTROL FOR STRESS PERIOD   19   TIME STEP    2
 
 SOLVING FOR HEAD 
                                                   Max.-Head-Change                         Max.-Flux-Residual
  Residual-Control   Outer-Iter.   Inner-Iter.     Column Row Layer    Maximum-Head-Change  Column Row Layer    Maximum-Flux-Residual          L2-NORM 
          0                 1           2             4    7     1      -0.5665673462E-01       4    7    1        -0.2964045508E+01      0.6883166049E+01
          0                 2           2             4    7     1       0.5511123853E-02       4    7    1         0.2964025263E+00      0.6883068883E+00
          0                 3           2             4    7     1      -0.3752874115E-03       4    7    1        -0.2074820497E-01      0.4818128000E-01
          0                 4           1             4    7     1       0.1493303595E-04       4    7    1         0.8486026866E-03      0.1970606990E-02

    ------------------------------------------------
       NWT REQUIRED            4 OUTER ITERATIONS 
       AND A TOTAL OF          7 INNER ITERATIONS.
    ------------------------------------------------

 NO OUTPUT CONTROL FOR STRESS PERIOD   19   TIME STEP    3
 
 SOLVING FOR HEAD 
                                                   Max.-Head-Change                         Max.-Flux-Residual
  Residual-Control   Outer-Iter.   Inner-Iter.     Column Row Layer    Maximum-Head-Change  Column Row Layer    Maximum-Flux-Residual          L2-NORM 
          0                 1           2             4    7     1      -0.5625104969E-01       4    7    1        -0.2943796838E+01      0.6772228395E+01
          0                 2           2             4    7     1       0.5471659930E-02       4    7    1         0.2943775306E+00      0.6772136939E+00
          0                 3           2             4    7     1      -0.3726000824E-03       4    7    1        -0.2060645641E-01      0.4740477522E-01
          0                 4           1             4    7     1       0.1482610451E-04       4    7    1         0.8428051549E-03      0.1938850973E-02

    ------------------------------------------------
       NWT REQUIRED            4 OUTER ITERATIONS 
       AND A TOTAL OF          7 INNER ITERATIONS.
    ------------------------------------------------

 NO OUTPUT CONTROL FOR STRESS PERIOD   19   TIME STEP    4
 
 SOLVING FOR HEAD 
                                                   Max.-Head-Change                         Max.-Flux-Residual
  Residual-Control   Outer-Iter.   Inner-Iter.     Column Row Layer    Maximum-Head-Change  Column Row Layer    Maximum-Flux-Residual          L2-NORM 
          0                 1           2             4    7     1      -0.5583102244E-01       4    7    1        -0.2922717759E+01      0.6666299439E+01
          0                 2           2             4    7     1       0.5430802238E-02       4    7    1         0.2922695100E+00      0.6667541895E+00
          0                 3           2             4    7     1      -0.3698178403E-03       4    7    1        -0.2045889598E-01      0.4667256373E-01
          0                 4           1             4    7     1       0.1471539632E-04       4    7    1         0.8367699027E-03      0.1908895607E-02

    ------------------------------------------------
       NWT REQUIRED            4 OUTER ITERATIONS 
       AND A TOTAL OF          7 INNER ITERATIONS.
    ------------------------------------------------

 NO OUTPUT CONTROL FOR STRESS PERIOD   19   TIME STEP    5
 
 SOLVING FOR HEAD 
                                                   Max.-Head-Change                         Max.-Flux-Residual
  Residual-Control   Outer-Iter.   Inner-Iter.     Column Row Layer    Maximum-Head-Change  Column Row Layer    Maximum-Flux-Residual          L2-NORM 
          0                 1           2             4    7     1      -0.5539807755E-01       4    7    1        -0.2900887661E+01      0.6564987498E+01
          0                 2           2             4    7     1       0.5388686481E-02       4    7    1         0.2900864021E+00      0.6564926971E+00
          0                 3           2             4    7     1      -0.3669499188E-03       4    7    1        -0.2030607929E-01      0.4595432928E-01
          0                 4           1             4    7     1       0.1460127919E-04       4    7    1         0.8305196984E-03      0.1879518817E-02

    ------------------------------------------------
       NWT REQUIRED            4 OUTER ITERATIONS 
       AND A TOTAL OF          7 INNER ITERATIONS.
    ------------------------------------------------

 NO OUTPUT CONTROL FOR STRESS PERIOD   19   TIME STEP    6
 
 SOLVING FOR HEAD 
                                                   Max.-Head-Change                         Max.-Flux-Residual
  Residual-Control   Outer-Iter.   Inner-Iter.     Column Row Layer    Maximum-Head-Change  Column Row Layer    Maximum-Flux-Residual          L2-NORM 
          0                 1           2             4    7     1      -0.5495381752E-01       4    7    1        -0.2878395214E+01      0.6467333570E+01
          0                 2           2             4    7     1       0.5345471255E-02       4    7    1         0.2878370728E+00      0.6467282092E+00
          0                 3           2             4    7     1      -0.3640071340E-03       4    7    1        -0.2014862696E-01      0.4527084646E-01
          0                 4           1             4    7     1       0.1448418268E-04       4    7    1         0.8240798809E-03      0.1851572198E-02

    ------------------------------------------------
       NWT REQUIRED            4 OUTER ITERATIONS 
       AND A TOTAL OF          7 INNER ITERATIONS.
    ------------------------------------------------

 NO OUTPUT CONTROL FOR STRESS PERIOD   19   TIME STEP    7
 
 SOLVING FOR HEAD 
                                                   Max.-Head-Change                         Max.-Flux-Residual
  Residual-Control   Outer-Iter.   Inner-Iter.     Column Row Layer    Maximum-Head-Change  Column Row Layer    Maximum-Flux-Residual          L2-NORM 
          0                 1           2             4    7     1      -0.5449961372E-01       4    7    1        -0.2855316039E+01      0.6373809726E+01
          0                 2           2             4    7     1       0.5301288554E-02       4    7    1         0.2855290831E+00      0.6373760479E+00
          0                 3           2             4    7     1      -0.3609984663E-03       4    7    1        -0.1998706830E-01      0.4461621280E-01
          0                 4           1             4    7     1       0.1436446494E-04       4    7    1         0.8174721158E-03      0.1824798721E-02

    ------------------------------------------------
       NWT REQUIRED            4 OUTER ITERATIONS 
       AND A TOTAL OF          7 INNER ITERATIONS.
    ------------------------------------------------

 NO OUTPUT CONTROL FOR STRESS PERIOD   19   TIME STEP    8
 
 SOLVING FOR HEAD 
                                                   Max.-Head-Change                         Max.-Flux-Residual
  Residual-Control   Outer-Iter.   Inner-Iter.     Column Row Layer    Maximum-Head-Change  Column Row Layer    Maximum-Flux-Residual          L2-NORM 
          0                 1           2             4    7     1      -0.5403662009E-01       4    7    1        -0.2831713992E+01      0.6284152492E+01
          0                 2           2             4    7     1       0.5256251011E-02       4    7    1         0.2831688177E+00      0.6284104888E+00
          0                 3           2             4    7     1      -0.3579315852E-03       4    7    1        -0.1982185022E-01      0.4398863875E-01
          0                 4           1             4    7     1       0.1424243095E-04       4    7    1         0.8107146855E-03      0.1799125676E-02

    ------------------------------------------------
       NWT REQUIRED            4 OUTER ITERATIONS 
       AND A TOTAL OF          7 INNER ITERATIONS.
    ------------------------------------------------

 NO OUTPUT CONTROL FOR STRESS PERIOD   19   TIME STEP    9
 
 SOLVING FOR HEAD 
                                                   Max.-Head-Change                         Max.-Flux-Residual
  Residual-Control   Outer-Iter.   Inner-Iter.     Column Row Layer    Maximum-Head-Change  Column Row Layer    Maximum-Flux-Residual          L2-NORM 
          0                 1           2             4    7     1      -0.5356604641E-01       4    7    1        -0.2807656207E+01      0.6198100210E+01
          0                 2           2             4    7     1       0.5210476293E-02       4    7    1         0.2807629891E+00      0.6198054281E+00
          0                 3           2             4    7     1      -0.3548145037E-03       4    7    1        -0.1965344262E-01      0.4338628571E-01
          0                 4           1             4    7     1       0.1411839950E-04       4    7    1         0.8038268038E-03      0.1774485357E-02

    ------------------------------------------------
       NWT REQUIRED            4 OUTER ITERATIONS 
       AND A TOTAL OF          7 INNER ITERATIONS.
    ------------------------------------------------

 NO OUTPUT CONTROL FOR STRESS PERIOD   19   TIME STEP   10
 
 SOLVING FOR HEAD 
                                                   Max.-Head-Change                         Max.-Flux-Residual
  Residual-Control   Outer-Iter.   Inner-Iter.     Column Row Layer    Maximum-Head-Change  Column Row Layer    Maximum-Flux-Residual          L2-NORM 
          0                 1           2             4    7     1      -0.5308889048E-01       4    7    1        -0.2783198091E+01      0.6115423944E+01
          0                 2           2             4    7     1       0.5164061445E-02       4    7    1         0.2783171370E+00      0.6115379547E+00
          0                 3           2             4    7     1      -0.3516538308E-03       4    7    1        -0.1948223329E-01      0.4280757700E-01
          0                 4           1             4    7     1       0.1399263365E-04       4    7    1         0.7968243417E-03      0.1750821551E-02

    ------------------------------------------------
       NWT REQUIRED            4 OUTER ITERATIONS 
       AND A TOTAL OF          7 INNER ITERATIONS.
    ------------------------------------------------

 NO OUTPUT CONTROL FOR STRESS PERIOD   19   TIME STEP   11
 
 SOLVING FOR HEAD 
                                                   Max.-Head-Change                         Max.-Flux-Residual
  Residual-Control   Outer-Iter.   Inner-Iter.     Column Row Layer    Maximum-Head-Change  Column Row Layer    Maximum-Flux-Residual          L2-NORM 
          0                 1           2             4    7     1      -0.5260648369E-01       4    7    1        -0.2758413340E+01      0.6035916664E+01
          0                 2           2             4    7     1       0.5117135961E-02       4    7    1         0.2758386302E+00      0.6035873800E+00
          0                 3           2             4    7     1      -0.3484583834E-03       4    7    1        -0.1930873803E-01      0.4225104738E-01
          0                 4           1             4    7     1       0.1386548327E-04       4    7    1         0.7897283651E-03      0.1728062722E-02

    ------------------------------------------------
       NWT REQUIRED            4 OUTER ITERATIONS 
       AND A TOTAL OF          7 INNER ITERATIONS.
    ------------------------------------------------

 NO OUTPUT CONTROL FOR STRESS PERIOD   19   TIME STEP   12
 
 SOLVING FOR HEAD 
                                                   Max.-Head-Change                         Max.-Flux-Residual
  Residual-Control   Outer-Iter.   Inner-Iter.     Column Row Layer    Maximum-Head-Change  Column Row Layer    Maximum-Flux-Residual          L2-NORM 
          0                 1           2             4    7     1      -0.5211966588E-01       4    7    1        -0.2733349026E+01      0.5959382021E+01
          0                 2           2             4    7     1       0.5069781525E-02       4    7    1         0.2733321751E+00      0.5959340636E+00
          0                 3           2             4    7     1      -0.3452337253E-03       4    7    1        -0.1913328633E-01      0.4171533529E-01
          0                 4           1             4    7     1       0.1373717137E-04       4    7    1         0.7825523915E-03      0.1706157164E-02

    ------------------------------------------------
       NWT REQUIRED            4 OUTER ITERATIONS 
       AND A TOTAL OF          7 INNER ITERATIONS.
    ------------------------------------------------

 NO OUTPUT CONTROL FOR STRESS PERIOD   19   TIME STEP   13
 
 SOLVING FOR HEAD 
                                                   Max.-Head-Change                         Max.-Flux-Residual
  Residual-Control   Outer-Iter.   Inner-Iter.     Column Row Layer    Maximum-Head-Change  Column Row Layer    Maximum-Flux-Residual          L2-NORM 
          0                 1           2             4    7     1      -0.5162922119E-01       4    7    1        -0.2708048697E+01      0.5885646167E+01
          0                 2           2             4    7     1       0.5022074402E-02       4    7    1         0.2708021260E+00      0.5885606159E+00
          0                 3           2             4    7     1      -0.3419850488E-03       4    7    1        -0.1895618295E-01      0.4119920319E-01
          0                 4           1             4    7     1       0.1360790311E-04       4    7    1         0.7753088382E-03      0.1685034380E-02

    ------------------------------------------------
       NWT REQUIRED            4 OUTER ITERATIONS 
       AND A TOTAL OF          7 INNER ITERATIONS.
    ------------------------------------------------

 NO OUTPUT CONTROL FOR STRESS PERIOD   19   TIME STEP   14
 
 SOLVING FOR HEAD 
                                                   Max.-Head-Change                         Max.-Flux-Residual
  Residual-Control   Outer-Iter.   Inner-Iter.     Column Row Layer    Maximum-Head-Change  Column Row Layer    Maximum-Flux-Residual          L2-NORM 
          0                 1           2             4    7     1      -0.5113613700E-01       4    7    1        -0.2682567647E+01      0.5814543440E+01
          0                 2           2             4    7     1       0.4974110624E-02       4    7    1         0.2682540114E+00      0.5814504664E+00
          0                 3           2             4    7     1      -0.3387188950E-03       4    7    1        -0.1877781495E-01      0.4070149548E-01
          0                 4           1             4    7     1       0.1347794005E-04       4    7    1         0.7680135802E-03      0.1664683647E-02

    ------------------------------------------------
       NWT REQUIRED            4 OUTER ITERATIONS 
       AND A TOTAL OF          7 INNER ITERATIONS.
    ------------------------------------------------

 NO OUTPUT CONTROL FOR STRESS PERIOD   19   TIME STEP   15
 
 SOLVING FOR HEAD 
                                                   Max.-Head-Change                         Max.-Flux-Residual
  Residual-Control   Outer-Iter.   Inner-Iter.     Column Row Layer    Maximum-Head-Change  Column Row Layer    Maximum-Flux-Residual          L2-NORM 
          0                 1           2             4    7     1      -0.5064120209E-01       4    7    1        -0.2656949753E+01      0.5745928626E+01
          0                 2           2             4    7     1       0.4925966912E-02       4    7    1         0.2656922184E+00      0.5745890965E+00
          0                 3           2             4    7     1      -0.3354404874E-03       4    7    1        -0.1859848941E-01      0.4022120318E-01
          0                 4           1             4    7     1       0.1334748931E-04       4    7    1         0.7606791596E-03      0.1645041502E-02

    ------------------------------------------------
       NWT REQUIRED            4 OUTER ITERATIONS 
       AND A TOTAL OF          7 INNER ITERATIONS.
    ------------------------------------------------

 NO OUTPUT CONTROL FOR STRESS PERIOD   19   TIME STEP   16
 
 SOLVING FOR HEAD 
                                                   Max.-Head-Change                         Max.-Flux-Residual
  Residual-Control   Outer-Iter.   Inner-Iter.     Column Row Layer    Maximum-Head-Change  Column Row Layer    Maximum-Flux-Residual          L2-NORM 
          0                 1           2             4    7     1      -0.5014501008E-01       4    7    1        -0.2631228597E+01      0.5679654003E+01
          0                 2           2             4    7     1       0.4877700999E-02       4    7    1         0.2631201048E+00      0.5679617437E+00
          0                 3           2             4    7     1      -0.3321537573E-03       4    7    1        -0.1841844138E-01      0.3975728896E-01
          0                 4           1             4    7     1       0.1321670701E-04       4    7    1         0.7533151779E-03      0.1626064665E-02

    ------------------------------------------------
       NWT REQUIRED            4 OUTER ITERATIONS 
       AND A TOTAL OF          7 INNER ITERATIONS.
    ------------------------------------------------

 NO OUTPUT CONTROL FOR STRESS PERIOD   19   TIME STEP   17
 
 SOLVING FOR HEAD 
                                                   Max.-Head-Change                         Max.-Flux-Residual
  Residual-Control   Outer-Iter.   Inner-Iter.     Column Row Layer    Maximum-Head-Change  Column Row Layer    Maximum-Flux-Residual          L2-NORM 
          0                 1           2             4    7     1      -0.4964837525E-01       4    7    1        -0.2605449590E+01      0.5615600867E+01
          0                 2           2             4    7     1       0.4829392085E-02       4    7    1         0.2605422110E+00      0.5615565221E+00
          0                 3           2             4    7     1      -0.3288640979E-03       4    7    1        -0.1823798864E-01      0.3930893471E-01
          0                 4           1             4    7     1       0.1308580842E-04       4    7    1         0.7459346489E-03      0.1607729081E-02

    ------------------------------------------------
       NWT REQUIRED            4 OUTER ITERATIONS 
       AND A TOTAL OF          7 INNER ITERATIONS.
    ------------------------------------------------

 NO OUTPUT CONTROL FOR STRESS PERIOD   19   TIME STEP   18
 
 SOLVING FOR HEAD 
                                                   Max.-Head-Change                         Max.-Flux-Residual
  Residual-Control   Outer-Iter.   Inner-Iter.     Column Row Layer    Maximum-Head-Change  Column Row Layer    Maximum-Flux-Residual          L2-NORM 
          0                 1           2             4    7     1      -0.4915178330E-01       4    7    1        -0.2579640323E+01      0.5553644010E+01
          0                 2           2             4    7     1       0.4781087407E-02       4    7    1         0.2579612956E+00      0.5553609736E+00
          0                 3           2             4    7     1      -0.3255747268E-03       4    7    1        -0.1805732439E-01      0.3887527377E-01
          0                 4           1             4    7     1       0.1295492135E-04       4    7    1         0.7385454699E-03      0.1589995169E-02

    ------------------------------------------------
       NWT REQUIRED            4 OUTER ITERATIONS 
       AND A TOTAL OF          7 INNER ITERATIONS.
    ------------------------------------------------

 NO OUTPUT CONTROL FOR STRESS PERIOD   19   TIME STEP   19
 
 SOLVING FOR HEAD 
                                                   Max.-Head-Change                         Max.-Flux-Residual
  Residual-Control   Outer-Iter.   Inner-Iter.     Column Row Layer    Maximum-Head-Change  Column Row Layer    Maximum-Flux-Residual          L2-NORM 
          0                 1           2             4    7     1      -0.4865594861E-01       4    7    1        -0.2553840606E+01      0.5493686081E+01
          0                 2           2             4    7     1       0.4732856447E-02       4    7    1         0.2553813392E+00      0.5493652650E+00
          0                 3           2             4    7     1      -0.3222903748E-03       4    7    1        -0.1787672721E-01      0.3845557048E-01
          0                 4           1             4    7     1       0.1282423379E-04       4    7    1         0.7311590400E-03      0.1572835040E-02

    ------------------------------------------------
       NWT REQUIRED            4 OUTER ITERATIONS 
       AND A TOTAL OF          7 INNER ITERATIONS.
    ------------------------------------------------

 NO OUTPUT CONTROL FOR STRESS PERIOD   19   TIME STEP   20
 
 SOLVING FOR HEAD 
                                                   Max.-Head-Change                         Max.-Flux-Residual
  Residual-Control   Outer-Iter.   Inner-Iter.     Column Row Layer    Maximum-Head-Change  Column Row Layer    Maximum-Flux-Residual          L2-NORM 
          0                 1           2             4    7     1      -0.4816139207E-01       4    7    1        -0.2528080165E+01      0.5435613612E+01
          0                 2           2             4    7     1       0.4684749870E-02       4    7    1         0.2528053140E+00      0.5435581056E+00
          0                 3           2             4    7     1      -0.3190144925E-03       4    7    1        -0.1769640520E-01      0.3804905836E-01
          0                 4           1             4    7     1       0.1269388356E-04       4    7    1         0.7237838558E-03      0.1556201581E-02

    ------------------------------------------------
       NWT REQUIRED            4 OUTER ITERATIONS 
       AND A TOTAL OF          7 INNER ITERATIONS.
    ------------------------------------------------

 NO OUTPUT CONTROL FOR STRESS PERIOD   19   TIME STEP   21
 
 SOLVING FOR HEAD 
                                                   Max.-Head-Change                         Max.-Flux-Residual
  Residual-Control   Outer-Iter.   Inner-Iter.     Column Row Layer    Maximum-Head-Change  Column Row Layer    Maximum-Flux-Residual          L2-NORM 
          0                 1           2             4    7     1      -0.4766845965E-01       4    7    1        -0.2502378699E+01      0.5379337847E+01
          0                 2           2             4    7     1       0.4636801322E-02       4    7    1         0.2502351895E+00      0.5379306179E+00
          0                 3           2             4    7     1      -0.3157493708E-03       4    7    1        -0.1751649617E-01      0.3765513848E-01
          0                 4           1             4    7     1       0.1256396137E-04       4    7    1         0.7164255771E-03      0.1540094903E-02

    ------------------------------------------------
       NWT REQUIRED            4 OUTER ITERATIONS 
       AND A TOTAL OF          7 INNER ITERATIONS.
    ------------------------------------------------

 NO OUTPUT CONTROL FOR STRESS PERIOD   19   TIME STEP   22
 
 SOLVING FOR HEAD 
                                                   Max.-Head-Change                         Max.-Flux-Residual
  Residual-Control   Outer-Iter.   Inner-Iter.     Column Row Layer    Maximum-Head-Change  Column Row Layer    Maximum-Flux-Residual          L2-NORM 
          0                 1           2             4    7     1      -0.4717773318E-01       4    7    1        -0.2476768768E+01      0.5324767225E+01
          0                 2           2             4    7     1       0.4589067394E-02       4    7    1         0.2476742212E+00      0.5324736403E+00
          0                 3           2             4    7     1      -0.3124988635E-03       4    7    1        -0.1733722809E-01      0.3727315191E-01
          0                 4           1             4    7     1       0.1243462058E-04       4    7    1         0.7090934946E-03      0.1524464229E-02

    ------------------------------------------------
       NWT REQUIRED            4 OUTER ITERATIONS 
       AND A TOTAL OF          7 INNER ITERATIONS.
    ------------------------------------------------

 NO OUTPUT CONTROL FOR STRESS PERIOD   19   TIME STEP   23
 
 SOLVING FOR HEAD 
                                                   Max.-Head-Change                         Max.-Flux-Residual
  Residual-Control   Outer-Iter.   Inner-Iter.     Column Row Layer    Maximum-Head-Change  Column Row Layer    Maximum-Flux-Residual          L2-NORM 
          0                 1           2             4    7     1      -0.4668961136E-01       4    7    1        -0.2451273227E+01      0.5271829323E+01
          0                 2           2             4    7     1       0.4541586863E-02       4    7    1         0.2451246944E+00      0.5271799340E+00
          0                 3           2             4    7     1      -0.3092656118E-03       4    7    1        -0.1715876090E-01      0.3690260116E-01
          0                 4           1             4    7     1       0.1230596687E-04       4    7    1         0.7017941905E-03      0.1509316247E-02

    ------------------------------------------------
       NWT REQUIRED            4 OUTER ITERATIONS 
       AND A TOTAL OF          7 INNER ITERATIONS.
    ------------------------------------------------

 NO OUTPUT CONTROL FOR STRESS PERIOD   19   TIME STEP   24
 
 SOLVING FOR HEAD 
                                                   Max.-Head-Change                         Max.-Flux-Residual
  Residual-Control   Outer-Iter.   Inner-Iter.     Column Row Layer    Maximum-Head-Change  Column Row Layer    Maximum-Flux-Residual          L2-NORM 
          0                 1           2             4    7     1      -0.4620446070E-01       4    7    1        -0.2425912749E+01      0.5220446187E+01
          0                 2           2             4    7     1       0.4494395377E-02       4    7    1         0.2425886761E+00      0.5220416970E+00
          0                 3           2             4    7     1      -0.3060520418E-03       4    7    1        -0.1698123925E-01      0.3654292592E-01
          0                 4           1             4    7     1       0.1217809556E-04       4    7    1         0.6945335303E-03      0.1494607818E-02

    ------------------------------------------------
       NWT REQUIRED            4 OUTER ITERATIONS 
       AND A TOTAL OF          7 INNER ITERATIONS.
    ------------------------------------------------

 NO OUTPUT CONTROL FOR STRESS PERIOD   19   TIME STEP   25
 
 SOLVING FOR HEAD 
                                                   Max.-Head-Change                         Max.-Flux-Residual
  Residual-Control   Outer-Iter.   Inner-Iter.     Column Row Layer    Maximum-Head-Change  Column Row Layer    Maximum-Flux-Residual          L2-NORM 
          0                 1           2             4    7     1      -0.4572247566E-01       4    7    1        -0.2400699029E+01      0.5170542117E+01
          0                 2           2             4    7     1       0.4447511847E-02       4    7    1         0.2400673356E+00      0.5170513637E+00
          0                 3           2             4    7     1      -0.3028594428E-03       4    7    1        -0.1680474505E-01      0.3619360139E-01
          0                 4           1             4    7     1       0.1205105870E-04       4    7    1         0.6873149066E-03      0.1480316731E-02

    ------------------------------------------------
       NWT REQUIRED            4 OUTER ITERATIONS 
       AND A TOTAL OF          7 INNER ITERATIONS.
    ------------------------------------------------

 NO OUTPUT CONTROL FOR STRESS PERIOD   19   TIME STEP   26
 
 SOLVING FOR HEAD 
                                                   Max.-Head-Change                         Max.-Flux-Residual
  Residual-Control   Outer-Iter.   Inner-Iter.     Column Row Layer    Maximum-Head-Change  Column Row Layer    Maximum-Flux-Residual          L2-NORM 
          0                 1           2             4    7     1      -0.4524409669E-01       4    7    1        -0.2375656768E+01      0.5122051950E+01
          0                 2           2             4    7     1       0.4400979113E-02       4    7    1         0.2375631426E+00      0.5122024176E+00
          0                 3           2             4    7     1      -0.2996907314E-03       4    7    1        -0.1662945114E-01      0.3585418173E-01
          0                 4           1             4    7     1       0.1192497337E-04       4    7    1         0.6801453974E-03      0.1466443926E-02

    ------------------------------------------------
       NWT REQUIRED            4 OUTER ITERATIONS 
       AND A TOTAL OF          7 INNER ITERATIONS.
    ------------------------------------------------

 NO OUTPUT CONTROL FOR STRESS PERIOD   19   TIME STEP   27
 
 SOLVING FOR HEAD 
                                                   Max.-Head-Change                         Max.-Flux-Residual
  Residual-Control   Outer-Iter.   Inner-Iter.     Column Row Layer    Maximum-Head-Change  Column Row Layer    Maximum-Flux-Residual          L2-NORM 
          0                 1           2             4    7     1      -0.4476959272E-01       4    7    1        -0.2350801492E+01      0.5074917381E+01
          0                 2           2             4    7     1       0.4354823332E-02       4    7    1         0.2350776495E+00      0.5074890334E+00
          0                 3           2             4    7     1      -0.2965476887E-03       4    7    1        -0.1645546622E-01      0.3552424344E-01
          0                 4           1             4    7     1       0.1179990865E-04       4    7    1         0.6730294008E-03      0.1452940272E-02

    ------------------------------------------------
       NWT REQUIRED            4 OUTER ITERATIONS 
       AND A TOTAL OF          7 INNER ITERATIONS.
    ------------------------------------------------

 NO OUTPUT CONTROL FOR STRESS PERIOD   19   TIME STEP   28
 
 SOLVING FOR HEAD 
                                                   Max.-Head-Change                         Max.-Flux-Residual
  Residual-Control   Outer-Iter.   Inner-Iter.     Column Row Layer    Maximum-Head-Change  Column Row Layer    Maximum-Flux-Residual          L2-NORM 
          0                 1           2             4    7     1      -0.4429907537E-01       4    7    1        -0.2326139841E+01      0.5029853220E+01
          0                 2           2             4    7     1       0.4309055358E-02       4    7    1         0.2326115201E+00      0.5029816925E+00
          0                 3           2             4    7     1      -0.2934310543E-03       4    7    1        -0.1628283676E-01      0.3520864100E-01
          0                 4           1             4    7     1       0.1167589493E-04       4    7    1         0.6659688459E-03      0.1440036488E-02

    ------------------------------------------------
       NWT REQUIRED            4 OUTER ITERATIONS 
       AND A TOTAL OF          7 INNER ITERATIONS.
    ------------------------------------------------

 NO OUTPUT CONTROL FOR STRESS PERIOD   19   TIME STEP   29
 
 SOLVING FOR HEAD 
                                                   Max.-Head-Change                         Max.-Flux-Residual
  Residual-Control   Outer-Iter.   Inner-Iter.     Column Row Layer    Maximum-Head-Change  Column Row Layer    Maximum-Flux-Residual          L2-NORM 
          0                 1           2             4    7     1      -0.4383304263E-01       4    7    1        -0.2301699518E+01      0.4986485522E+01
          0                 2           2             4    7     1       0.4263723629E-02       4    7    1         0.2301675245E+00      0.4986429726E+00
          0                 3           2             4    7     1      -0.2903441259E-03       4    7    1        -0.1611175664E-01      0.3490474539E-01
          0                 4           1             4    7     1       0.1155306299E-04       4    7    1         0.6589716504E-03      0.1427636378E-02

    ------------------------------------------------
       NWT REQUIRED            4 OUTER ITERATIONS 
       AND A TOTAL OF          7 INNER ITERATIONS.
    ------------------------------------------------

 NO OUTPUT CONTROL FOR STRESS PERIOD   19   TIME STEP   30



 STREAM LISTING     PERIOD     19   STEP       30

 LAYER ROW COL. STREAM  RCH.  FLOW INTO     FLOW TO   FLOW OUT OF   OVRLND.     DIRECT     STREAM       STREAM     STREAM     STREAM   STREAMBED  STREAMBED
                SEG.NO.  NO.  STRM. RCH.    AQUIFER    STRM. RCH.    RUNOFF     PRECIP       ET          HEAD       DEPTH      WIDTH   CONDCTNC.   GRADIENT

   1    1    1     1     1    2.0250E+01  2.2212E-01   2.0028E+01  0.000E+00  0.000E+00  0.000E+00  1.09415E+03  1.102E+00  1.203E+01  5.414E-02  1.367E+00
   1    2    2     1     2    2.0028E+01  3.4298E-01   1.9685E+01  0.000E+00  0.000E+00  0.000E+00  1.08916E+03  1.098E+00  1.196E+01  8.370E-02  1.366E+00
   1    3    3     1     3    1.9685E+01  2.9127E-01   1.9394E+01  0.000E+00  0.000E+00  0.000E+00  1.08351E+03  1.093E+00  1.186E+01  7.117E-02  1.364E+00
   1    3    4     1     4    1.9394E+01  2.6721E-01   1.9127E+01  0.000E+00  0.000E+00  0.000E+00  1.07850E+03  1.088E+00  1.178E+01  6.536E-02  1.363E+00
   1    4    5     2     1    1.7127E+01  3.0866E-01   1.6818E+01  0.000E+00  0.000E+00  0.000E+00  1.07289E+03  9.572E-01  1.200E+01  7.800E-02  1.319E+00
   1    5    6     2     2    1.6818E+01  2.3687E-01   1.6581E+01  0.000E+00  0.000E+00  0.000E+00  1.06746E+03  9.479E-01  1.200E+01  6.000E-02  1.316E+00
   1    6    6     2     3    1.6581E+01  2.3639E-01   1.6345E+01  0.000E+00  0.000E+00  0.000E+00  1.06273E+03  9.398E-01  1.200E+01  6.000E-02  1.313E+00
   1    7    6     2     4    1.6345E+01  2.3590E-01   1.6109E+01  0.000E+00  0.000E+00  0.000E+00  1.05801E+03  9.317E-01  1.200E+01  6.000E-02  1.311E+00
   1    8    6     2     5    1.6109E+01  2.3541E-01   1.5873E+01  0.000E+00  0.000E+00  0.000E+00  1.05328E+03  9.236E-01  1.200E+01  6.000E-02  1.308E+00
   1    3    5     3     1    2.0000E+00  2.8252E-01   1.7175E+00  0.000E+00  0.000E+00  0.000E+00  1.07555E+03  1.909E+00  9.636E+00  7.227E-02  1.955E+00
   1    3    6     3     2    1.7175E+00  2.4905E-01   1.4684E+00  0.000E+00  0.000E+00  0.000E+00  1.07264E+03  1.727E+00  8.909E+00  6.682E-02  1.864E+00
   1    3    7     3     3    1.4684E+00  1.9718E-01   1.2712E+00  0.000E+00  0.000E+00  0.000E+00  1.06987E+03  1.555E+00  8.218E+00  5.547E-02  1.777E+00
   1    4    8     3     4    1.2712E+00  2.2567E-01   1.0456E+00  0.000E+00  0.000E+00  0.000E+00  1.06682E+03  1.364E+00  7.455E+00  6.709E-02  1.682E+00
   1    5    8     3     5    1.0456E+00  1.5790E-01   8.8768E-01  0.000E+00  0.000E+00  0.000E+00  1.06362E+03  1.164E+00  6.655E+00  4.991E-02  1.582E+00
   1    6    8     3     6    8.8768E-01  5.5980E-02   8.3170E-01  0.000E+00  0.000E+00  0.000E+00  1.06158E+03  1.036E+00  6.145E+00  1.844E-02  1.518E+00
   1    5   10     4     1    1.0000E+01  9.0919E-02   9.9091E+00  0.000E+00  0.000E+00  0.000E+00  1.07836E+03  6.368E-01  1.000E+01  2.500E-02  1.212E+00
   1    5    9     4     2    9.9091E+00  1.8158E-01   9.7275E+00  0.000E+00  0.000E+00  0.000E+00  1.07154E+03  6.315E-01  1.000E+01  5.000E-02  1.211E+00
   1    6    8     4     3    9.7275E+00  1.2689E-01   9.6006E+00  0.000E+00  0.000E+00  0.000E+00  1.06381E+03  6.256E-01  1.000E+01  3.500E-02  1.209E+00
   1    6    8     5     1    1.0432E+01  2.2686E-01   1.0205E+01  0.000E+00  0.000E+00  0.000E+00  1.05868E+03  6.790E-01  1.542E+01  6.166E-02  1.226E+00
   1    7    7     5     2    1.0205E+01  2.7894E-01   9.9265E+00  0.000E+00  0.000E+00  0.000E+00  1.05417E+03  6.732E-01  1.519E+01  7.594E-02  1.224E+00
   1    8    7     5     3    9.9265E+00  1.9221E-01   9.7343E+00  0.000E+00  0.000E+00  0.000E+00  1.04992E+03  6.676E-01  1.497E+01  5.241E-02  1.223E+00
   1    8    6     5     4    9.7343E+00  1.3577E-01   9.5985E+00  0.000E+00  0.000E+00  0.000E+00  1.04691E+03  6.637E-01  1.482E+01  3.706E-02  1.221E+00
   1    9    6     6     1    2.5472E+01  2.5387E-01   2.5218E+01  0.000E+00  0.000E+00  0.000E+00  1.04396E+03  1.231E+00  1.200E+01  6.000E-02  1.410E+00
   1   10    7     6     2    2.5218E+01  2.5342E-01   2.4965E+01  0.000E+00  0.000E+00  0.000E+00  1.03941E+03  1.224E+00  1.200E+01  6.000E-02  1.408E+00
   1   11    7     6     3    2.4965E+01  2.5298E-01   2.4712E+01  0.000E+00  0.000E+00  0.000E+00  1.03485E+03  1.216E+00  1.200E+01  6.000E-02  1.405E+00
   1   12    7     6     4    2.4712E+01  2.5253E-01   2.4459E+01  0.000E+00  0.000E+00  0.000E+00  1.03030E+03  1.209E+00  1.200E+01  6.000E-02  1.403E+00
   1   13    7     6     5    2.4459E+01  9.2130E-03   2.4450E+01  0.000E+00  0.000E+00  0.000E+00  1.02711E+03  1.205E+00  1.200E+01  2.400E-02  1.280E-01
   1   14    9     7     1    1.5000E+02  1.3721E+00   1.4863E+02  0.000E+00  0.000E+00  0.000E+00  1.03987E+03  2.288E+00  5.529E+01  5.593E-01  8.178E-01
   1   13    8     7     2    1.4863E+02  1.9454E+00   1.4668E+02  0.000E+00  0.000E+00  0.000E+00  1.03478E+03  2.279E+00  5.525E+01  6.147E-01  1.055E+00
   1   13    7     7     3    1.4668E+02  1.6519E+00   1.4503E+02  0.000E+00  0.000E+00  0.000E+00  1.02969E+03  2.269E+00  5.521E+01  5.584E-01  9.861E-01
   1   13    6     8     1    1.6948E+02  1.0886E+00   1.6839E+02  0.000E+00  0.000E+00  0.000E+00  1.02482E+03  2.945E+00  4.271E+01  4.352E-01  8.338E-01
   1   13    5     8     2    1.6839E+02  3.2507E-01   1.6807E+02  0.000E+00  0.000E+00  0.000E+00  1.01857E+03  2.941E+00  4.264E+01  4.345E-01  2.494E-01
   1   13    4     8     3    1.6807E+02 -1.9651E+00   1.7003E+02  0.000E+00  0.000E+00  0.000E+00  1.01232E+03  2.946E+00  4.272E+01  4.353E+00 -1.505E-01
   1   13    3     8     4    1.7003E+02 -3.4320E+00   1.7346E+02  0.000E+00  0.000E+00  0.000E+00  1.00609E+03  2.964E+00  4.297E+01  4.379E+00 -2.612E-01
   1   13    2     8     5    1.7346E+02 -2.5458E+00   1.7601E+02  0.000E+00  0.000E+00  0.000E+00  9.99858E+02  2.983E+00  4.325E+01  4.407E+00 -1.925E-01
   1   13    1     8     6    1.7601E+02 -1.9870E+00   1.7800E+02  0.000E+00  0.000E+00  0.000E+00  9.94872E+02  2.997E+00  4.346E+01  2.657E+00 -2.493E-01
   1    8    6     9     1    0.0000E+00  0.0000E+00   0.0000E+00  0.000E+00  0.000E+00  0.000E+00  1.07875E+03  0.000E+00  4.000E+00  0.000E+00  1.000E+00
   1    8    5     9     2    0.0000E+00  0.0000E+00   0.0000E+00  0.000E+00  0.000E+00  0.000E+00  1.07825E+03  0.000E+00  4.000E+00  0.000E+00  1.000E+00





UNSATURATED ZONE PACKAGE VOLUMETRIC BUDGET FOR  TIME STEP    30 STRESS PERIOD   19
  ------------------------------------------------------------------------------



     CUMULATIVE VOLUMES      L**3       RATES FOR THIS TIME STEP      L**3/T
     ------------------                 ------------------------

           IN:                                      IN:
           ---                                      ---
        INFILTRATION =   532609303.7032          INFILTRATION =          23.3175

          OUT:                                     OUT:
          ----                                     ----
              UZF ET =   531863836.1591                UZF ET =          23.3175
        UZF RECHARGE =       73224.0000          UZF RECHARGE =       0.0000E+00

            IN - OUT =      672243.5441              IN - OUT =       0.0000E+00

          STORAGE:                                 STORAGE:
          --------                                 --------
      STORAGE CHANGE =      672243.4909        STORAGE CHANGE =       9.1295E-16

 PERCENT DISCREPANCY IS DIFFERENCE BETWEEN IN-OUT MINUS CHANGE IN STORAGE
 DIVIDED BY THE AVERAGE OF IN AND OUT TIMES 100

 PERCENT DISCREPANCY =           0.00     PERCENT DISCREPANCY =           0.00






1
  VOLUMETRIC BUDGET FOR AGRICULTURAL FIELDS AT  END OF TIME STEP   30, STRESS PERIOD  19
  ------------------------------------------------------------------------------

     CUMULATIVE VOLUMES      L**3       RATES FOR THIS TIME STEP      L**3/T
     ------------------                 ------------------------

           IN:                                      IN:
           ---                                      ---
               AG WELLS  =   492414784.0000                 AG WELLS  =          22.4700
      DIVERSION SEGMENTS =           0.0000        DIVERSION SEGMENTS =           0.0000
       IRRIGATION PONDS  =           0.0000         IRRIGATION PONDS  =           0.0000
           GW IRRIGATION =           0.0000             GW IRRIGATION =           0.0000
           SW IRRIGATION =           0.0000             SW IRRIGATION =           0.0000
        SYSTEM LOSSES GW =           0.0000          SYSTEM LOSSES GW =           0.0000
        SYSTEM LOSSES SW =           0.0000          SYSTEM LOSSES SW =           0.0000

                TOTAL IN =   492414784.0000                  TOTAL IN =          22.4700

          OUT:                                     OUT:
          ----                                     ----
               AG WELLS  =           0.0000                 AG WELLS  =           0.0000
      DIVERSION SEGMENTS =           0.0000        DIVERSION SEGMENTS =           0.0000
       IRRIGATION PONDS  =           0.0000         IRRIGATION PONDS  =           0.0000
           GW IRRIGATION =   492414784.0000             GW IRRIGATION =          22.4700
           SW IRRIGATION =           0.0000             SW IRRIGATION =           0.0000
        SYSTEM LOSSES GW =           0.0000          SYSTEM LOSSES GW =           0.0000
        SYSTEM LOSSES SW =           0.0000          SYSTEM LOSSES SW =           0.0000

               TOTAL OUT =   492414784.0000                 TOTAL OUT =          22.4700

                IN - OUT =           0.0000                  IN - OUT =           0.0000

     PERCENT DISCREPANCY =           0.00         PERCENT DISCREPANCY =           0.00



1
  VOLUMETRIC BUDGET FOR ENTIRE MODEL AT END OF TIME STEP   30, STRESS PERIOD  19
  ------------------------------------------------------------------------------

     CUMULATIVE VOLUMES      L**3       RATES FOR THIS TIME STEP      L**3/T
     ------------------                 ------------------------

           IN:                                      IN:
           ---                                      ---
             STORAGE     =   639106368.0000               STORAGE     =          20.4051
       CONSTANT HEAD     =           0.0000         CONSTANT HEAD     =           0.0000
     HEAD DEP BOUNDS     =    13657353.0000       HEAD DEP BOUNDS     =           0.2882
      STREAM LEAKAGE     =   563564864.0000        STREAM LEAKAGE     =          12.1834
        UZF RECHARGE     =       73223.9531          UZF RECHARGE     =           0.0000
               GW ET     =           0.0000                 GW ET     =           0.0000
     SURFACE LEAKAGE     =           0.0000       SURFACE LEAKAGE     =           0.0000
           AG WELLS      =           0.0000             AG WELLS      =           0.0000

                TOTAL IN =  1216401792.0000                  TOTAL IN =          32.8767

          OUT:                                     OUT:
          ----                                     ----
             STORAGE     =   230273584.0000               STORAGE     =           0.1873
       CONSTANT HEAD     =           0.0000         CONSTANT HEAD     =           0.0000
     HEAD DEP BOUNDS     =    13713979.0000       HEAD DEP BOUNDS     =           0.2896
      STREAM LEAKAGE     =   480000928.0000        STREAM LEAKAGE     =           9.9299
        UZF RECHARGE     =           0.0000          UZF RECHARGE     =           0.0000
               GW ET     =           0.0000                 GW ET     =           0.0000
     SURFACE LEAKAGE     =           0.0000       SURFACE LEAKAGE     =           0.0000
           AG WELLS      =   492414784.0000             AG WELLS      =          22.4700

               TOTAL OUT =  1216403200.0000                 TOTAL OUT =          32.8767

                IN - OUT =       -1408.0000                  IN - OUT =      -6.8665E-05

     PERCENT DISCREPANCY =          -0.00         PERCENT DISCREPANCY =          -0.00






         TIME SUMMARY AT END OF TIME STEP   30 IN STRESS PERIOD   19
                    SECONDS     MINUTES      HOURS       DAYS        YEARS
                    -----------------------------------------------------------
   TIME STEP LENGTH  87667.      1461.1      24.352      1.0147     2.77799E-03
 STRESS PERIOD TIME 2.63000E+06  43833.      730.56      30.440     8.33397E-02
         TOTAL TIME 4.74265E+07 7.90442E+05  13174.      548.92      1.5029    
1
1
                            STRESS PERIOD NO.   20, LENGTH =   2630000.    
                            -----------------------------------------------

                              NUMBER OF TIME STEPS =    30

                               MULTIPLIER FOR DELT =     1.000

                            INITIAL TIME STEP SIZE =   87666.66    

 REUSING NON-PARAMETER GHB CELLS FROM LAST STRESS PERIOD

      2 GHB CELLS

 REUSING STREAM SEGMENT DATA FROM LAST STRESS PERIOD



            AREAL INFILTRATION RATE
 READING ON UNIT   19 WITH FORMAT: (FREE)              

            1           2           3           4           5           6           7           8           9          10
 ........................................................................................................................
   1   1.0000E-10  2.0000E-10   0.000       0.000       0.000       0.000       0.000       0.000       0.000       0.000    
   2   2.0000E-10  1.0000E-10  2.0000E-10   0.000       0.000      8.0000E-10  8.0000E-10  5.0000E-10   0.000       0.000    
   3    0.000      5.0000E-10  1.0000E-10  1.0000E-10  8.0000E-10  8.0000E-10  5.0000E-10  5.0000E-10   0.000       0.000    
   4   8.0000E-10  5.0000E-10  1.0000E-10  1.0000E-10  1.0000E-10  1.0000E-10  1.0000E-10  1.0000E-10  2.0000E-10   0.000    
   5   8.0000E-10  5.0000E-10  1.0000E-10  1.0000E-10  1.0000E-10  1.0000E-10  1.0000E-10  1.0000E-10  1.0000E-10  1.0000E-10
   6   8.0000E-10  5.0000E-10  5.0000E-10  2.0000E-10  2.0000E-10  1.0000E-10  1.0000E-10  1.0000E-10  1.0000E-10  5.0000E-10
   7   8.0000E-10  5.0000E-10  5.0000E-10  2.0000E-10  2.0000E-10  1.0000E-10  1.0000E-10  2.0000E-10  2.0000E-10   0.000    
   8    0.000      5.0000E-10  5.0000E-10  2.0000E-10  2.0000E-10  1.0000E-10  1.0000E-10  2.0000E-10  5.0000E-10   0.000    
   9    0.000      5.0000E-10  5.0000E-10  2.0000E-10  2.0000E-10  1.0000E-10  1.0000E-10  2.0000E-10  5.0000E-10   0.000    
  10    0.000      5.0000E-10  5.0000E-10  2.0000E-10  2.0000E-10  1.0000E-10  1.0000E-10  2.0000E-10  5.0000E-10  8.0000E-10
  11    0.000      1.0000E-10  1.0000E-10  1.0000E-10  1.0000E-10  1.0000E-10  1.0000E-10  2.0000E-10  5.0000E-10   0.000    
  12   1.0000E-10  1.0000E-10  1.0000E-10  1.0000E-10  1.0000E-10  1.0000E-10  1.0000E-10  1.0000E-10  2.0000E-10   0.000    
  13   1.0000E-10  1.0000E-10  2.0000E-10  2.0000E-10  2.0000E-10  2.0000E-10  2.0000E-10  1.0000E-10  1.0000E-10   0.000    
  14    0.000      2.0000E-10  5.0000E-10  5.0000E-10  5.0000E-10  5.0000E-10  5.0000E-10  2.0000E-10  1.0000E-10   0.000    
  15    0.000       0.000      8.0000E-10  8.0000E-10  8.0000E-10  8.0000E-10   0.000       0.000       0.000       0.000    

                  ET RATE =  4.000000E-07

 USING ET EXTINCTION DEPTH FROM PREVIOUS STRESS PERIOD. CURRENT PERIOD IS:      20

 USING EXTINCTION WATER CONTENT FROM PREVIOUS STRESS PERIOD. CURRENT PERIOD IS:      20

 USING AIR ENTRY PRESSURE FROM PREVIOUS STRESS PERIOD. CURRENT PERIOD IS:      20

 USING ROOT PRESSURE HEAD FROM PREVIOUS STRESS PERIOD. CURRENT PERIOD IS:      20

 USING ROOT ACTIVITY FROM PREVIOUS STRESS PERIOD. CURRENT PERIOD IS:      20

 PROCESSING AG STRESS PERIOD DATA

 READING AG STRESS PERIOD DATA

 READING IRRIGATION SEGMENT

 READING IRRIGATION WELL

 READING SUPPLEMENTAL WELL

 NO IRRPOND OR REUSING IRRPOND DATA FROM LAST STRESS PERIOD

 END PROCESSING AG STRESS PERIOD DATA OPTIONS
 
 SOLVING FOR HEAD 
                                                   Max.-Head-Change                         Max.-Flux-Residual
  Residual-Control   Outer-Iter.   Inner-Iter.     Column Row Layer    Maximum-Head-Change  Column Row Layer    Maximum-Flux-Residual          L2-NORM 
          0                 1           2             4    7     1      -0.1630872788E+00       4    7    1        -0.8527484189E+01      0.1997316509E+02
          0                 2           2             4    7     1       0.1586369324E-01       4    7    1         0.8527316941E+00      0.1997288151E+01
          0                 3           2             4    7     1      -0.1080261162E-02       4    7    1        -0.5969140262E-01      0.1398104242E+00
          0                 4           1             4    7     1       0.4298459118E-04       4    7    1         0.2441381042E-02      0.5718249832E-02

    ------------------------------------------------
       NWT REQUIRED            4 OUTER ITERATIONS 
       AND A TOTAL OF          7 INNER ITERATIONS.
    ------------------------------------------------

 OUTPUT CONTROL FOR STRESS PERIOD   20   TIME STEP    1
    PRINT BUDGET
    SAVE BUDGET
    SAVE BUDGET
    SAVE HEAD FOR ALL LAYERS
 UBDSV1 SAVING "         STORAGE" ON UNIT 102 AT TIME STEP 1, STRESS PERIOD 20
 UBDSV2 SAVING "   CONSTANT HEAD" ON UNIT 102 AT TIME STEP 1, STRESS PERIOD 20
 UBDSV1 SAVING "FLOW RIGHT FACE " ON UNIT 102 AT TIME STEP 1, STRESS PERIOD 20
 UBDSV1 SAVING "FLOW FRONT FACE " ON UNIT 102 AT TIME STEP 1, STRESS PERIOD 20

  HEAD DEP BOUNDS   PERIOD   20   STEP     1
 BOUNDARY      1   LAYER   1   ROW    13   COL     1   RATE   -0.289544    
 BOUNDARY      2   LAYER   1   ROW    14   COL     9   RATE    0.288231    



 STREAM LISTING     PERIOD     20   STEP        1

 LAYER ROW COL. STREAM  RCH.  FLOW INTO     FLOW TO   FLOW OUT OF   OVRLND.     DIRECT     STREAM       STREAM     STREAM     STREAM   STREAMBED  STREAMBED
                SEG.NO.  NO.  STRM. RCH.    AQUIFER    STRM. RCH.    RUNOFF     PRECIP       ET          HEAD       DEPTH      WIDTH   CONDCTNC.   GRADIENT

   1    1    1     1     1    2.0250E+01  2.2212E-01   2.0028E+01  0.000E+00  0.000E+00  0.000E+00  1.09415E+03  1.102E+00  1.203E+01  5.414E-02  1.367E+00
   1    2    2     1     2    2.0028E+01  3.4298E-01   1.9685E+01  0.000E+00  0.000E+00  0.000E+00  1.08916E+03  1.098E+00  1.196E+01  8.370E-02  1.366E+00
   1    3    3     1     3    1.9685E+01  2.9127E-01   1.9394E+01  0.000E+00  0.000E+00  0.000E+00  1.08351E+03  1.093E+00  1.186E+01  7.117E-02  1.364E+00
   1    3    4     1     4    1.9394E+01  2.6721E-01   1.9127E+01  0.000E+00  0.000E+00  0.000E+00  1.07850E+03  1.088E+00  1.178E+01  6.536E-02  1.363E+00
   1    4    5     2     1    1.7127E+01  3.0866E-01   1.6818E+01  0.000E+00  0.000E+00  0.000E+00  1.07289E+03  9.572E-01  1.200E+01  7.800E-02  1.319E+00
   1    5    6     2     2    1.6818E+01  2.3687E-01   1.6581E+01  0.000E+00  0.000E+00  0.000E+00  1.06746E+03  9.479E-01  1.200E+01  6.000E-02  1.316E+00
   1    6    6     2     3    1.6581E+01  2.3639E-01   1.6345E+01  0.000E+00  0.000E+00  0.000E+00  1.06273E+03  9.398E-01  1.200E+01  6.000E-02  1.313E+00
   1    7    6     2     4    1.6345E+01  2.3590E-01   1.6109E+01  0.000E+00  0.000E+00  0.000E+00  1.05801E+03  9.317E-01  1.200E+01  6.000E-02  1.311E+00
   1    8    6     2     5    1.6109E+01  2.3541E-01   1.5873E+01  0.000E+00  0.000E+00  0.000E+00  1.05328E+03  9.236E-01  1.200E+01  6.000E-02  1.308E+00
   1    3    5     3     1    2.0000E+00  2.8252E-01   1.7175E+00  0.000E+00  0.000E+00  0.000E+00  1.07555E+03  1.909E+00  9.636E+00  7.227E-02  1.955E+00
   1    3    6     3     2    1.7175E+00  2.4905E-01   1.4684E+00  0.000E+00  0.000E+00  0.000E+00  1.07264E+03  1.727E+00  8.909E+00  6.682E-02  1.864E+00
   1    3    7     3     3    1.4684E+00  1.9718E-01   1.2712E+00  0.000E+00  0.000E+00  0.000E+00  1.06987E+03  1.555E+00  8.218E+00  5.547E-02  1.777E+00
   1    4    8     3     4    1.2712E+00  2.2567E-01   1.0456E+00  0.000E+00  0.000E+00  0.000E+00  1.06682E+03  1.364E+00  7.455E+00  6.709E-02  1.682E+00
   1    5    8     3     5    1.0456E+00  1.5790E-01   8.8768E-01  0.000E+00  0.000E+00  0.000E+00  1.06362E+03  1.164E+00  6.655E+00  4.991E-02  1.582E+00
   1    6    8     3     6    8.8768E-01  5.5980E-02   8.3170E-01  0.000E+00  0.000E+00  0.000E+00  1.06158E+03  1.036E+00  6.145E+00  1.844E-02  1.518E+00
   1    5   10     4     1    1.0000E+01  9.0919E-02   9.9091E+00  0.000E+00  0.000E+00  0.000E+00  1.07836E+03  6.368E-01  1.000E+01  2.500E-02  1.212E+00
   1    5    9     4     2    9.9091E+00  1.8158E-01   9.7275E+00  0.000E+00  0.000E+00  0.000E+00  1.07154E+03  6.315E-01  1.000E+01  5.000E-02  1.211E+00
   1    6    8     4     3    9.7275E+00  1.2689E-01   9.6006E+00  0.000E+00  0.000E+00  0.000E+00  1.06381E+03  6.256E-01  1.000E+01  3.500E-02  1.209E+00
   1    6    8     5     1    1.0432E+01  2.2686E-01   1.0205E+01  0.000E+00  0.000E+00  0.000E+00  1.05868E+03  6.790E-01  1.542E+01  6.166E-02  1.226E+00
   1    7    7     5     2    1.0205E+01  2.7894E-01   9.9265E+00  0.000E+00  0.000E+00  0.000E+00  1.05417E+03  6.732E-01  1.519E+01  7.594E-02  1.224E+00
   1    8    7     5     3    9.9265E+00  1.9221E-01   9.7343E+00  0.000E+00  0.000E+00  0.000E+00  1.04992E+03  6.676E-01  1.497E+01  5.241E-02  1.223E+00
   1    8    6     5     4    9.7343E+00  1.3577E-01   9.5985E+00  0.000E+00  0.000E+00  0.000E+00  1.04691E+03  6.637E-01  1.482E+01  3.706E-02  1.221E+00
   1    9    6     6     1    2.5472E+01  2.5387E-01   2.5218E+01  0.000E+00  0.000E+00  0.000E+00  1.04396E+03  1.231E+00  1.200E+01  6.000E-02  1.410E+00
   1   10    7     6     2    2.5218E+01  2.5342E-01   2.4965E+01  0.000E+00  0.000E+00  0.000E+00  1.03941E+03  1.224E+00  1.200E+01  6.000E-02  1.408E+00
   1   11    7     6     3    2.4965E+01  2.5298E-01   2.4712E+01  0.000E+00  0.000E+00  0.000E+00  1.03485E+03  1.216E+00  1.200E+01  6.000E-02  1.405E+00
   1   12    7     6     4    2.4712E+01  2.5253E-01   2.4459E+01  0.000E+00  0.000E+00  0.000E+00  1.03030E+03  1.209E+00  1.200E+01  6.000E-02  1.403E+00
   1   13    7     6     5    2.4459E+01  9.2233E-03   2.4450E+01  0.000E+00  0.000E+00  0.000E+00  1.02711E+03  1.205E+00  1.200E+01  2.400E-02  1.281E-01
   1   14    9     7     1    1.5000E+02  1.3721E+00   1.4863E+02  0.000E+00  0.000E+00  0.000E+00  1.03987E+03  2.288E+00  5.529E+01  5.593E-01  8.178E-01
   1   13    8     7     2    1.4863E+02  1.9455E+00   1.4668E+02  0.000E+00  0.000E+00  0.000E+00  1.03478E+03  2.279E+00  5.525E+01  6.147E-01  1.055E+00
   1   13    7     7     3    1.4668E+02  1.6521E+00   1.4503E+02  0.000E+00  0.000E+00  0.000E+00  1.02969E+03  2.269E+00  5.521E+01  5.584E-01  9.863E-01
   1   13    6     8     1    1.6948E+02  1.0889E+00   1.6839E+02  0.000E+00  0.000E+00  0.000E+00  1.02482E+03  2.945E+00  4.271E+01  4.352E-01  8.340E-01
   1   13    5     8     2    1.6839E+02  3.2528E-01   1.6807E+02  0.000E+00  0.000E+00  0.000E+00  1.01857E+03  2.941E+00  4.264E+01  4.345E-01  2.495E-01
   1   13    4     8     3    1.6807E+02 -1.9625E+00   1.7003E+02  0.000E+00  0.000E+00  0.000E+00  1.01232E+03  2.946E+00  4.272E+01  4.353E+00 -1.503E-01
   1   13    3     8     4    1.7003E+02 -3.4298E+00   1.7346E+02  0.000E+00  0.000E+00  0.000E+00  1.00609E+03  2.964E+00  4.297E+01  4.379E+00 -2.611E-01
   1   13    2     8     5    1.7346E+02 -2.5435E+00   1.7600E+02  0.000E+00  0.000E+00  0.000E+00  9.99858E+02  2.983E+00  4.325E+01  4.407E+00 -1.924E-01
   1   13    1     8     6    1.7600E+02 -1.9859E+00   1.7799E+02  0.000E+00  0.000E+00  0.000E+00  9.94872E+02  2.997E+00  4.346E+01  2.657E+00 -2.491E-01
   1    8    6     9     1    0.0000E+00  0.0000E+00   0.0000E+00  0.000E+00  0.000E+00  0.000E+00  1.07875E+03  0.000E+00  4.000E+00  0.000E+00  1.000E+00
   1    8    5     9     2    0.0000E+00  0.0000E+00   0.0000E+00  0.000E+00  0.000E+00  0.000E+00  1.07825E+03  0.000E+00  4.000E+00  0.000E+00  1.000E+00



 UBDSV3 SAVING "           GW ET" ON UNIT  61 AT TIME STEP 1, STRESS PERIOD 20
 UBDSV3 SAVING "    UZF RECHARGE" ON UNIT  61 AT TIME STEP 1, STRESS PERIOD 20
 UBDSV3 SAVING " SURFACE LEAKAGE" ON UNIT  61 AT TIME STEP 1, STRESS PERIOD 20
 UBDSV3 SAVING "       HORT+DUNN" ON UNIT  61 AT TIME STEP 1, STRESS PERIOD 20
 UBDSV3 SAVING "  STORAGE CHANGE" ON UNIT  61 AT TIME STEP 1, STRESS PERIOD 20


UNSATURATED ZONE PACKAGE VOLUMETRIC BUDGET FOR  TIME STEP     1 STRESS PERIOD   20
  ------------------------------------------------------------------------------



     CUMULATIVE VOLUMES      L**3       RATES FOR THIS TIME STEP      L**3/T
     ------------------                 ------------------------

           IN:                                      IN:
           ---                                      ---
        INFILTRATION =   537940970.9491          INFILTRATION =          60.8175

          OUT:                                     OUT:
          ----                                     ----
              UZF ET =   537195503.4050                UZF ET =          60.8175
        UZF RECHARGE =       73224.0000          UZF RECHARGE =       0.0000E+00

            IN - OUT =      672243.5441              IN - OUT =       0.0000E+00

          STORAGE:                                 STORAGE:
          --------                                 --------
      STORAGE CHANGE =      672243.4909        STORAGE CHANGE =      -9.1295E-16

 PERCENT DISCREPANCY IS DIFFERENCE BETWEEN IN-OUT MINUS CHANGE IN STORAGE
 DIVIDED BY THE AVERAGE OF IN AND OUT TIMES 100

 PERCENT DISCREPANCY =           0.00     PERCENT DISCREPANCY =           0.00






 

            AG WELLS      PERIOD   20   STEP   1
 AG WELL      1   LAYER   1   ROW     6   COL     4   RATE    -9.99500    
 AG WELL      2   LAYER   1   ROW     6   COL     5   RATE    -9.99500    
 AG WELL      3   LAYER   1   ROW     7   COL     4   RATE    -9.99500    
 AG WELL      4   LAYER   1   ROW     7   COL     5   RATE    -9.99500    
 AG WELL      5   LAYER   1   ROW     8   COL     4   RATE    -9.99500    
 AG WELL      6   LAYER   1   ROW     8   COL     5   RATE    -9.99500    
 
 

   DIVERSION SEGMENTS     PERIOD   20   STEP   1
 SEGMENT      9   RATE     0.00000    
 
 

        SW IRRIGATION     PERIOD   20   STEP   1
 SEGMENT      9   ROW     6   COL     4   RATE     0.00000    
 SEGMENT      9   ROW     6   COL     5   RATE     0.00000    
 SEGMENT      9   ROW     7   COL     4   RATE     0.00000    
 SEGMENT      9   ROW     7   COL     5   RATE     0.00000    
 SEGMENT      9   ROW     8   COL     4   RATE     0.00000    
 SEGMENT      9   ROW     8   COL     5   RATE     0.00000    
 
 

        GW IRRIGATION     PERIOD   20   STEP   1
 AG WELL      1   ROW     6   COL     4   RATE     9.99500    
 AG WELL      2   ROW     6   COL     5   RATE     9.99500    
 AG WELL      3   ROW     7   COL     4   RATE     9.99500    
 AG WELL      4   ROW     7   COL     5   RATE     9.99500    
 AG WELL      5   ROW     8   COL     4   RATE     9.99500    
 AG WELL      6   ROW     8   COL     5   RATE     9.99500    
 
1
  VOLUMETRIC BUDGET FOR AGRICULTURAL FIELDS AT  END OF TIME STEP    1, STRESS PERIOD  20
  ------------------------------------------------------------------------------

     CUMULATIVE VOLUMES      L**3       RATES FOR THIS TIME STEP      L**3/T
     ------------------                 ------------------------

           IN:                                      IN:
           ---                                      ---
               AG WELLS  =   497672160.0000                 AG WELLS  =          59.9700
      DIVERSION SEGMENTS =           0.0000        DIVERSION SEGMENTS =           0.0000
       IRRIGATION PONDS  =           0.0000         IRRIGATION PONDS  =           0.0000
           GW IRRIGATION =           0.0000             GW IRRIGATION =           0.0000
           SW IRRIGATION =           0.0000             SW IRRIGATION =           0.0000
        SYSTEM LOSSES GW =           0.0000          SYSTEM LOSSES GW =           0.0000
        SYSTEM LOSSES SW =           0.0000          SYSTEM LOSSES SW =           0.0000

                TOTAL IN =   497672160.0000                  TOTAL IN =          59.9700

          OUT:                                     OUT:
          ----                                     ----
               AG WELLS  =           0.0000                 AG WELLS  =           0.0000
      DIVERSION SEGMENTS =           0.0000        DIVERSION SEGMENTS =           0.0000
       IRRIGATION PONDS  =           0.0000         IRRIGATION PONDS  =           0.0000
           GW IRRIGATION =   497672160.0000             GW IRRIGATION =          59.9700
           SW IRRIGATION =           0.0000             SW IRRIGATION =           0.0000
        SYSTEM LOSSES GW =           0.0000          SYSTEM LOSSES GW =           0.0000
        SYSTEM LOSSES SW =           0.0000          SYSTEM LOSSES SW =           0.0000

               TOTAL OUT =   497672160.0000                 TOTAL OUT =          59.9700

                IN - OUT =           0.0000                  IN - OUT =           0.0000

     PERCENT DISCREPANCY =           0.00         PERCENT DISCREPANCY =           0.00




 HEAD WILL BE SAVED ON UNIT   62 AT END OF TIME STEP    1, STRESS PERIOD   20
1
  VOLUMETRIC BUDGET FOR ENTIRE MODEL AT END OF TIME STEP    1, STRESS PERIOD  20
  ------------------------------------------------------------------------------

     CUMULATIVE VOLUMES      L**3       RATES FOR THIS TIME STEP      L**3/T
     ------------------                 ------------------------

           IN:                                      IN:
           ---                                      ---
             STORAGE     =   644181888.0000               STORAGE     =          57.8957
       CONSTANT HEAD     =           0.0000         CONSTANT HEAD     =           0.0000
     HEAD DEP BOUNDS     =    13682621.0000       HEAD DEP BOUNDS     =           0.2882
      STREAM LEAKAGE     =   564633024.0000        STREAM LEAKAGE     =          12.1843
        UZF RECHARGE     =       73223.9531          UZF RECHARGE     =           0.0000
               GW ET     =           0.0000                 GW ET     =           0.0000
     SURFACE LEAKAGE     =           0.0000       SURFACE LEAKAGE     =           0.0000
           AG WELLS      =           0.0000             AG WELLS      =           0.0000

                TOTAL IN =  1222570752.0000                  TOTAL IN =          70.3682

          OUT:                                     OUT:
          ----                                     ----
             STORAGE     =   230289984.0000               STORAGE     =           0.1872
       CONSTANT HEAD     =           0.0000         CONSTANT HEAD     =           0.0000
     HEAD DEP BOUNDS     =    13739362.0000       HEAD DEP BOUNDS     =           0.2895
      STREAM LEAKAGE     =   480870720.0000        STREAM LEAKAGE     =           9.9217
        UZF RECHARGE     =           0.0000          UZF RECHARGE     =           0.0000
               GW ET     =           0.0000                 GW ET     =           0.0000
     SURFACE LEAKAGE     =           0.0000       SURFACE LEAKAGE     =           0.0000
           AG WELLS      =   497672160.0000             AG WELLS      =          59.9700

               TOTAL OUT =  1222572288.0000                 TOTAL OUT =          70.3684

                IN - OUT =       -1536.0000                  IN - OUT =      -2.0599E-04

     PERCENT DISCREPANCY =          -0.00         PERCENT DISCREPANCY =          -0.00






         TIME SUMMARY AT END OF TIME STEP    1 IN STRESS PERIOD   20
                    SECONDS     MINUTES      HOURS       DAYS        YEARS
                    -----------------------------------------------------------
   TIME STEP LENGTH  87667.      1461.1      24.352      1.0147     2.77799E-03
 STRESS PERIOD TIME  87667.      1461.1      24.352      1.0147     2.77799E-03
         TOTAL TIME 4.75142E+07 7.91903E+05  13198.      549.93      1.5056    
1
 
 SOLVING FOR HEAD 
                                                   Max.-Head-Change                         Max.-Flux-Residual
  Residual-Control   Outer-Iter.   Inner-Iter.     Column Row Layer    Maximum-Head-Change  Column Row Layer    Maximum-Flux-Residual          L2-NORM 
          0                 1           2             4    7     1      -0.1620047319E+00       4    7    1        -0.8473711277E+01      0.1966305732E+02
          0                 2           2             4    7     1       0.1575837491E-01       4    7    1         0.8473533161E+00      0.1966277144E+01
          0                 3           2             4    7     1      -0.1073089530E-02       4    7    1        -0.5931492625E-01      0.1376396659E+00
          0                 4           1             4    7     1       0.4269922428E-04       4    7    1         0.2425983076E-02      0.5629469218E-02

    ------------------------------------------------
       NWT REQUIRED            4 OUTER ITERATIONS 
       AND A TOTAL OF          7 INNER ITERATIONS.
    ------------------------------------------------

 NO OUTPUT CONTROL FOR STRESS PERIOD   20   TIME STEP    2
 
 SOLVING FOR HEAD 
                                                   Max.-Head-Change                         Max.-Flux-Residual
  Residual-Control   Outer-Iter.   Inner-Iter.     Column Row Layer    Maximum-Head-Change  Column Row Layer    Maximum-Flux-Residual          L2-NORM 
          0                 1           2             4    7     1      -0.1608791374E+00       4    7    1        -0.8417459834E+01      0.1936738964E+02
          0                 2           2             4    7     1       0.1564887117E-01       4    7    1         0.8417272147E+00      0.1936710256E+01
          0                 3           2             4    7     1      -0.1065632869E-02       4    7    1        -0.5892110806E-01      0.1355699895E+00
          0                 4           1             4    7     1       0.4240251594E-04       4    7    1         0.2409875847E-02      0.5544818041E-02

    ------------------------------------------------
       NWT REQUIRED            4 OUTER ITERATIONS 
       AND A TOTAL OF          7 INNER ITERATIONS.
    ------------------------------------------------

 NO OUTPUT CONTROL FOR STRESS PERIOD   20   TIME STEP    3
 
 SOLVING FOR HEAD 
                                                   Max.-Head-Change                         Max.-Flux-Residual
  Residual-Control   Outer-Iter.   Inner-Iter.     Column Row Layer    Maximum-Head-Change  Column Row Layer    Maximum-Flux-Residual          L2-NORM 
          0                 1           2             4    7     1      -0.1597148456E+00       4    7    1        -0.8358969126E+01      0.1908511391E+02
          0                 2           2             4    7     1       0.1553560503E-01       4    7    1         0.8358773070E+00      0.1908482660E+01
          0                 3           2             4    7     1      -0.1057919986E-02       4    7    1        -0.5851162227E-01      0.1335940679E+00
          0                 4           1             4    7     1       0.4209561281E-04       4    7    1         0.2393127822E-02      0.5464003532E-02

    ------------------------------------------------
       NWT REQUIRED            4 OUTER ITERATIONS 
       AND A TOTAL OF          7 INNER ITERATIONS.
    ------------------------------------------------

 NO OUTPUT CONTROL FOR STRESS PERIOD   20   TIME STEP    4
 
 SOLVING FOR HEAD 
                                                   Max.-Head-Change                         Max.-Flux-Residual
  Residual-Control   Outer-Iter.   Inner-Iter.     Column Row Layer    Maximum-Head-Change  Column Row Layer    Maximum-Flux-Residual          L2-NORM 
          0                 1           2             4    7     1      -0.1585160788E+00       4    7    1        -0.8298472025E+01      0.1881526333E+02
          0                 2           2             4    7     1       0.1541898707E-01       4    7    1         0.8298268715E+00      0.1881497661E+01
          0                 3           2             4    7     1      -0.1049978839E-02       4    7    1        -0.5808809847E-01      0.1317051186E+00
          0                 4           1             4    7     1       0.4177962669E-04       4    7    1         0.2375805645E-02      0.5386744223E-02

    ------------------------------------------------
       NWT REQUIRED            4 OUTER ITERATIONS 
       AND A TOTAL OF          7 INNER ITERATIONS.
    ------------------------------------------------

 NO OUTPUT CONTROL FOR STRESS PERIOD   20   TIME STEP    5
 
 SOLVING FOR HEAD 
                                                   Max.-Head-Change                         Max.-Flux-Residual
  Residual-Control   Outer-Iter.   Inner-Iter.     Column Row Layer    Maximum-Head-Change  Column Row Layer    Maximum-Flux-Residual          L2-NORM 
          0                 1           2             4    7     1      -0.1572866791E+00       4    7    1        -0.8236180166E+01      0.1855697036E+02
          0                 2           2             4    7     1       0.1529939089E-01       4    7    1         0.8235970631E+00      0.1855668495E+01
          0                 3           2             4    7     1      -0.1041834871E-02       4    7    1        -0.5765201756E-01      0.1298970758E+00
          0                 4           1             4    7     1       0.4145556989E-04       4    7    1         0.2357969877E-02      0.5312791115E-02

    ------------------------------------------------
       NWT REQUIRED            4 OUTER ITERATIONS 
       AND A TOTAL OF          7 INNER ITERATIONS.
    ------------------------------------------------

 NO OUTPUT CONTROL FOR STRESS PERIOD   20   TIME STEP    6
 
 SOLVING FOR HEAD 
                                                   Max.-Head-Change                         Max.-Flux-Residual
  Residual-Control   Outer-Iter.   Inner-Iter.     Column Row Layer    Maximum-Head-Change  Column Row Layer    Maximum-Flux-Residual          L2-NORM 
          0                 1           2             4    7     1      -0.1560303742E+00       4    7    1        -0.8172300064E+01      0.1830944019E+02
          0                 2           2             4    7     1       0.1517717899E-01       4    7    1         0.8172085252E+00      0.1830915673E+01
          0                 3           2             4    7     1      -0.1033512768E-02       4    7    1        -0.5720482470E-01      0.1281643835E+00
          0                 4           1             4    7     1       0.4112442527E-04       4    7    1         0.2339679625E-02      0.5241926045E-02

    ------------------------------------------------
       NWT REQUIRED            4 OUTER ITERATIONS 
       AND A TOTAL OF          7 INNER ITERATIONS.
    ------------------------------------------------

 NO OUTPUT CONTROL FOR STRESS PERIOD   20   TIME STEP    7
 
 SOLVING FOR HEAD 
                                                   Max.-Head-Change                         Max.-Flux-Residual
  Residual-Control   Outer-Iter.   Inner-Iter.     Column Row Layer    Maximum-Head-Change  Column Row Layer    Maximum-Flux-Residual          L2-NORM 
          0                 1           2             4    7     1      -0.1547505317E+00       4    7    1        -0.8107017722E+01      0.1807194844E+02
          0                 2           2             4    7     1       0.1505267862E-01       4    7    1         0.8106798509E+00      0.1807159697E+01
          0                 3           2             4    7     1      -0.1025034819E-02       4    7    1        -0.5674782149E-01      0.1265014644E+00
          0                 4           1             4    7     1       0.4078707999E-04       4    7    1         0.2320988180E-02      0.5173915590E-02

    ------------------------------------------------
       NWT REQUIRED            4 OUTER ITERATIONS 
       AND A TOTAL OF          7 INNER ITERATIONS.
    ------------------------------------------------

 NO OUTPUT CONTROL FOR STRESS PERIOD   20   TIME STEP    8
 
 SOLVING FOR HEAD 
                                                   Max.-Head-Change                         Max.-Flux-Residual
  Residual-Control   Outer-Iter.   Inner-Iter.     Column Row Layer    Maximum-Head-Change  Column Row Layer    Maximum-Flux-Residual          L2-NORM 
          0                 1           2             4    7     1      -0.1534504299E+00       4    7    1        -0.8040515048E+01      0.1784384443E+02
          0                 2           2             4    7     1       0.1492620914E-01       4    7    1         0.8040292235E+00      0.1784356635E+01
          0                 3           2             4    7     1      -0.1016422766E-02       4    7    1        -0.5628228076E-01      0.1249052500E+00
          0                 4           1             4    7     1       0.4044439773E-04       4    7    1         0.2301947506E-02      0.5108629837E-02

    ------------------------------------------------
       NWT REQUIRED            4 OUTER ITERATIONS 
       AND A TOTAL OF          7 INNER ITERATIONS.
    ------------------------------------------------

 NO OUTPUT CONTROL FOR STRESS PERIOD   20   TIME STEP    9
 
 SOLVING FOR HEAD 
                                                   Max.-Head-Change                         Max.-Flux-Residual
  Residual-Control   Outer-Iter.   Inner-Iter.     Column Row Layer    Maximum-Head-Change  Column Row Layer    Maximum-Flux-Residual          L2-NORM 
          0                 1           2             4    7     1      -0.1521331276E+00       4    7    1        -0.7972962000E+01      0.1762455375E+02
          0                 2           2             4    7     1       0.1479806743E-01       4    7    1         0.7972736324E+00      0.1762427893E+01
          0                 3           2             4    7     1      -0.1007696831E-02       4    7    1        -0.5580939189E-01      0.1233702391E+00
          0                 4           1             4    7     1       0.4009718452E-04       4    7    1         0.2282606311E-02      0.5045849358E-02

    ------------------------------------------------
       NWT REQUIRED            4 OUTER ITERATIONS 
       AND A TOTAL OF          7 INNER ITERATIONS.
    ------------------------------------------------

 NO OUTPUT CONTROL FOR STRESS PERIOD   20   TIME STEP   10
 
 SOLVING FOR HEAD 
                                                   Max.-Head-Change                         Max.-Flux-Residual
  Residual-Control   Outer-Iter.   Inner-Iter.     Column Row Layer    Maximum-Head-Change  Column Row Layer    Maximum-Flux-Residual          L2-NORM 
          0                 1           2             4    7     1      -0.1508012135E+00       4    7    1        -0.7904502652E+01      0.1741349715E+02
          0                 2           2             4    7     1       0.1466850538E-01       4    7    1         0.7904274788E+00      0.1741322586E+01
          0                 3           2             4    7     1      -0.9988741661E-03       4    7    1        -0.5533016300E-01      0.1218928652E+00
          0                 4           1             4    7     1       0.3974612236E-04       4    7    1         0.2263005811E-02      0.4985426970E-02

    ------------------------------------------------
       NWT REQUIRED            4 OUTER ITERATIONS 
       AND A TOTAL OF          7 INNER ITERATIONS.
    ------------------------------------------------

 NO OUTPUT CONTROL FOR STRESS PERIOD   20   TIME STEP   11
 
 SOLVING FOR HEAD 
                                                   Max.-Head-Change                         Max.-Flux-Residual
  Residual-Control   Outer-Iter.   Inner-Iter.     Column Row Layer    Maximum-Head-Change  Column Row Layer    Maximum-Flux-Residual          L2-NORM 
          0                 1           2             4    7     1      -0.1494577606E+00       4    7    1        -0.7835307615E+01      0.1721017718E+02
          0                 2           2             4    7     1       0.1453782183E-01       4    7    1         0.7835078176E+00      0.1720990760E+01
          0                 3           2             4    7     1      -0.9899751226E-03       4    7    1        -0.5484578800E-01      0.1204697573E+00
          0                 4           1             4    7     1       0.3939202094E-04       4    7    1         0.2243194843E-02      0.4927228728E-02

    ------------------------------------------------
       NWT REQUIRED            4 OUTER ITERATIONS 
       AND A TOTAL OF          7 INNER ITERATIONS.
    ------------------------------------------------

 NO OUTPUT CONTROL FOR STRESS PERIOD   20   TIME STEP   12
 
 SOLVING FOR HEAD 
                                                   Max.-Head-Change                         Max.-Flux-Residual
  Residual-Control   Outer-Iter.   Inner-Iter.     Column Row Layer    Maximum-Head-Change  Column Row Layer    Maximum-Flux-Residual          L2-NORM 
          0                 1           2             4    7     1      -0.1481048311E+00       4    7    1        -0.7765492562E+01      0.1701412496E+02
          0                 2           2             4    7     1       0.1440621729E-01       4    7    1         0.7765262109E+00      0.1701386372E+01
          0                 3           2             4    7     1      -0.9810133551E-03       4    7    1        -0.5435707627E-01      0.1190973246E+00
          0                 4           1             4    7     1       0.3903542414E-04       4    7    1         0.2223206503E-02      0.4871083945E-02

    ------------------------------------------------
       NWT REQUIRED            4 OUTER ITERATIONS 
       AND A TOTAL OF          7 INNER ITERATIONS.
    ------------------------------------------------

 NO OUTPUT CONTROL FOR STRESS PERIOD   20   TIME STEP   13
 
 SOLVING FOR HEAD 
                                                   Max.-Head-Change                         Max.-Flux-Residual
  Residual-Control   Outer-Iter.   Inner-Iter.     Column Row Layer    Maximum-Head-Change  Column Row Layer    Maximum-Flux-Residual          L2-NORM 
          0                 1           2             4    7     1      -0.1467448626E+00       4    7    1        -0.7695193528E+01      0.1682491190E+02
          0                 2           2             4    7     1       0.1427392879E-01       4    7    1         0.7694962570E+00      0.1682465257E+01
          0                 3           2             4    7     1      -0.9720050053E-03       4    7    1        -0.5386497976E-01      0.1177728456E+00
          0                 4           1             4    7     1       0.3867697320E-04       4    7    1         0.2203079729E-02      0.4816913298E-02

    ------------------------------------------------
       NWT REQUIRED            4 OUTER ITERATIONS 
       AND A TOTAL OF          7 INNER ITERATIONS.
    ------------------------------------------------

 NO OUTPUT CONTROL FOR STRESS PERIOD   20   TIME STEP   14
 
 SOLVING FOR HEAD 
                                                   Max.-Head-Change                         Max.-Flux-Residual
  Residual-Control   Outer-Iter.   Inner-Iter.     Column Row Layer    Maximum-Head-Change  Column Row Layer    Maximum-Flux-Residual          L2-NORM 
          0                 1           2             4    7     1      -0.1453798497E+00       4    7    1        -0.7624522355E+01      0.1664214500E+02
          0                 2           2             4    7     1       0.1414115029E-01       4    7    1         0.7624291354E+00      0.1664188993E+01
          0                 3           2             4    7     1      -0.9629632815E-03       4    7    1        -0.5337028110E-01      0.1164935030E+00
          0                 4           1             4    7     1       0.3831719462E-04       4    7    1         0.2182846519E-02      0.4764588658E-02

    ------------------------------------------------
       NWT REQUIRED            4 OUTER ITERATIONS 
       AND A TOTAL OF          7 INNER ITERATIONS.
    ------------------------------------------------

 NO OUTPUT CONTROL FOR STRESS PERIOD   20   TIME STEP   15
 
 SOLVING FOR HEAD 
                                                   Max.-Head-Change                         Max.-Flux-Residual
  Residual-Control   Outer-Iter.   Inner-Iter.     Column Row Layer    Maximum-Head-Change  Column Row Layer    Maximum-Flux-Residual          L2-NORM 
          0                 1           2             4    7     1      -0.1440120377E+00       4    7    1        -0.7553604274E+01      0.1646547674E+02
          0                 2           2             4    7     1       0.1400810013E-01       4    7    1         0.7553373646E+00      0.1646522604E+01
          0                 3           2             4    7     1      -0.9539030527E-03       4    7    1        -0.5287385658E-01      0.1152568511E+00
          0                 4           1             4    7     1       0.3795667967E-04       4    7    1         0.2162542730E-02      0.4714009311E-02

    ------------------------------------------------
       NWT REQUIRED            4 OUTER ITERATIONS 
       AND A TOTAL OF          7 INNER ITERATIONS.
    ------------------------------------------------

 NO OUTPUT CONTROL FOR STRESS PERIOD   20   TIME STEP   16
 
 SOLVING FOR HEAD 
                                                   Max.-Head-Change                         Max.-Flux-Residual
  Residual-Control   Outer-Iter.   Inner-Iter.     Column Row Layer    Maximum-Head-Change  Column Row Layer    Maximum-Flux-Residual          L2-NORM 
          0                 1           2             4    7     1      -0.1426429729E+00       4    7    1        -0.7482526634E+01      0.1629456546E+02
          0                 2           2             4    7     1       0.1387492867E-01       4    7    1         0.7482296758E+00      0.1629431921E+01
          0                 3           2             4    7     1      -0.9448345580E-03       4    7    1        -0.5237631743E-01      0.1140605009E+00
          0                 4           1             4    7     1       0.3759583593E-04       4    7    1         0.2142193365E-02      0.4665080653E-02

    ------------------------------------------------
       NWT REQUIRED            4 OUTER ITERATIONS 
       AND A TOTAL OF          7 INNER ITERATIONS.
    ------------------------------------------------

 NO OUTPUT CONTROL FOR STRESS PERIOD   20   TIME STEP   17
 
 SOLVING FOR HEAD 
                                                   Max.-Head-Change                         Max.-Flux-Residual
  Residual-Control   Outer-Iter.   Inner-Iter.     Column Row Layer    Maximum-Head-Change  Column Row Layer    Maximum-Flux-Residual          L2-NORM 
          0                 1           2             4    7     1      -0.1412743375E+00       4    7    1        -0.7411384151E+01      0.1612910351E+02
          0                 2           2             4    7     1       0.1374179947E-01       4    7    1         0.7411155365E+00      0.1612886172E+01
          0                 3           2             4    7     1      -0.9357689359E-03       4    7    1        -0.5187832643E-01      0.1129022926E+00
          0                 4           1             4    7     1       0.3723510627E-04       4    7    1         0.2121825490E-02      0.4617707955E-02

    ------------------------------------------------
       NWT REQUIRED            4 OUTER ITERATIONS 
       AND A TOTAL OF          7 INNER ITERATIONS.
    ------------------------------------------------

 NO OUTPUT CONTROL FOR STRESS PERIOD   20   TIME STEP   18
 
 SOLVING FOR HEAD 
                                                   Max.-Head-Change                         Max.-Flux-Residual
  Residual-Control   Outer-Iter.   Inner-Iter.     Column Row Layer    Maximum-Head-Change  Column Row Layer    Maximum-Flux-Residual          L2-NORM 
          0                 1           2             4    7     1      -0.1399079461E+00       4    7    1        -0.7340278565E+01      0.1596880991E+02
          0                 2           2             4    7     1       0.1360888898E-01       4    7    1         0.7340051171E+00      0.1596857269E+01
          0                 3           2             4    7     1      -0.9267182041E-03       4    7    1        -0.5138059555E-01      0.1117802673E+00
          0                 4           1             4    7     1       0.3687496975E-04       4    7    1         0.2101468299E-02      0.4571817343E-02

    ------------------------------------------------
       NWT REQUIRED            4 OUTER ITERATIONS 
       AND A TOTAL OF          7 INNER ITERATIONS.
    ------------------------------------------------

 NO OUTPUT CONTROL FOR STRESS PERIOD   20   TIME STEP   19
 
 SOLVING FOR HEAD 
                                                   Max.-Head-Change                         Max.-Flux-Residual
  Residual-Control   Outer-Iter.   Inner-Iter.     Column Row Layer    Maximum-Head-Change  Column Row Layer    Maximum-Flux-Residual          L2-NORM 
          0                 1           2             4    7     1      -0.1385448091E+00       4    7    1        -0.7269267655E+01      0.1581341882E+02
          0                 2           2             4    7     1       0.1347629547E-01       4    7    1         0.7269041927E+00      0.1581318611E+01
          0                 3           2             4    7     1      -0.9176890519E-03       4    7    1        -0.5088352904E-01      0.1106925593E+00
          0                 4           1             4    7     1       0.3651569128E-04       4    7    1         0.2081138247E-02      0.4527330992E-02

    ------------------------------------------------
       NWT REQUIRED            4 OUTER ITERATIONS 
       AND A TOTAL OF          7 INNER ITERATIONS.
    ------------------------------------------------

 NO OUTPUT CONTROL FOR STRESS PERIOD   20   TIME STEP   20
 
 SOLVING FOR HEAD 
                                                   Max.-Head-Change                         Max.-Flux-Residual
  Residual-Control   Outer-Iter.   Inner-Iter.     Column Row Layer    Maximum-Head-Change  Column Row Layer    Maximum-Flux-Residual          L2-NORM 
          0                 1           2             4    7     1      -0.1371866372E+00       4    7    1        -0.7198447375E+01      0.1566269055E+02
          0                 2           2             4    7     1       0.1334418527E-01       4    7    1         0.7198223554E+00      0.1566246234E+01
          0                 3           2             4    7     1      -0.9086928091E-03       4    7    1        -0.5038779840E-01      0.1096374878E+00
          0                 4           1             4    7     1       0.3615772239E-04       4    7    1         0.2060862847E-02      0.4484178442E-02

    ------------------------------------------------
       NWT REQUIRED            4 OUTER ITERATIONS 
       AND A TOTAL OF          7 INNER ITERATIONS.
    ------------------------------------------------

 NO OUTPUT CONTROL FOR STRESS PERIOD   20   TIME STEP   21
 
 SOLVING FOR HEAD 
                                                   Max.-Head-Change                         Max.-Flux-Residual
  Residual-Control   Outer-Iter.   Inner-Iter.     Column Row Layer    Maximum-Head-Change  Column Row Layer    Maximum-Flux-Residual          L2-NORM 
          0                 1           2             4    7     1      -0.1358343407E+00       4    7    1        -0.7127870134E+01      0.1551639409E+02
          0                 2           2             4    7     1       0.1321264696E-01       4    7    1         0.7127648433E+00      0.1551644268E+01
          0                 3           2             4    7     1      -0.8997355065E-03       4    7    1        -0.4989377033E-01      0.1086153439E+00
          0                 4           1             4    7     1       0.3580130299E-04       4    7    1         0.2040657075E-02      0.4442371774E-02

    ------------------------------------------------
       NWT REQUIRED            4 OUTER ITERATIONS 
       AND A TOTAL OF          7 INNER ITERATIONS.
    ------------------------------------------------

 NO OUTPUT CONTROL FOR STRESS PERIOD   20   TIME STEP   22
 
 SOLVING FOR HEAD 
                                                   Max.-Head-Change                         Max.-Flux-Residual
  Residual-Control   Outer-Iter.   Inner-Iter.     Column Row Layer    Maximum-Head-Change  Column Row Layer    Maximum-Flux-Residual          L2-NORM 
          0                 1           2             4    7     1      -0.1344891388E+00       4    7    1        -0.7057604897E+01      0.1537429546E+02
          0                 2           2             4    7     1       0.1308179898E-01       4    7    1         0.7057385504E+00      0.1537434491E+01
          0                 3           2             4    7     1      -0.8908252098E-03       4    7    1        -0.4940192745E-01      0.1076206568E+00
          0                 4           1             4    7     1       0.3544675385E-04       4    7    1         0.2020540679E-02      0.4401689472E-02

    ------------------------------------------------
       NWT REQUIRED            4 OUTER ITERATIONS 
       AND A TOTAL OF          7 INNER ITERATIONS.
    ------------------------------------------------

 NO OUTPUT CONTROL FOR STRESS PERIOD   20   TIME STEP   23
 
 SOLVING FOR HEAD 
                                                   Max.-Head-Change                         Max.-Flux-Residual
  Residual-Control   Outer-Iter.   Inner-Iter.     Column Row Layer    Maximum-Head-Change  Column Row Layer    Maximum-Flux-Residual          L2-NORM 
          0                 1           2             4    7     1      -0.1331521486E+00       4    7    1        -0.6987714873E+01      0.1523617448E+02
          0                 2           2             4    7     1       0.1295174996E-01       4    7    1         0.6987497954E+00      0.1523596134E+01
          0                 3           2             4    7     1      -0.8819693179E-03       4    7    1        -0.4891271205E-01      0.1066519687E+00
          0                 4           1             4    7     1       0.3509437025E-04       4    7    1         0.2000531762E-02      0.4362070850E-02

    ------------------------------------------------
       NWT REQUIRED            4 OUTER ITERATIONS 
       AND A TOTAL OF          7 INNER ITERATIONS.
    ------------------------------------------------

 NO OUTPUT CONTROL FOR STRESS PERIOD   20   TIME STEP   24
 
 SOLVING FOR HEAD 
                                                   Max.-Head-Change                         Max.-Flux-Residual
  Residual-Control   Outer-Iter.   Inner-Iter.     Column Row Layer    Maximum-Head-Change  Column Row Layer    Maximum-Flux-Residual          L2-NORM 
          0                 1           2             4    7     1      -0.1318239857E+00       4    7    1        -0.6918236236E+01      0.1510187170E+02
          0                 2           2             4    7     1       0.1282255986E-01       4    7    1         0.6918021935E+00      0.1510166299E+01
          0                 3           2             4    7     1      -0.8731719127E-03       4    7    1        -0.4842637723E-01      0.1057118779E+00
          0                 4           1             4    7     1       0.3474431373E-04       4    7    1         0.1980640664E-02      0.4323620354E-02

    ------------------------------------------------
       NWT REQUIRED            4 OUTER ITERATIONS 
       AND A TOTAL OF          7 INNER ITERATIONS.
    ------------------------------------------------

 NO OUTPUT CONTROL FOR STRESS PERIOD   20   TIME STEP   25
 
 SOLVING FOR HEAD 
                                                   Max.-Head-Change                         Max.-Flux-Residual
  Residual-Control   Outer-Iter.   Inner-Iter.     Column Row Layer    Maximum-Head-Change  Column Row Layer    Maximum-Flux-Residual          L2-NORM 
          0                 1           2             4    7     1      -0.1305055955E+00       4    7    1        -0.6849222650E+01      0.1497123753E+02
          0                 2           2             4    7     1       0.1269432173E-01       4    7    1         0.6849011092E+00      0.1497098923E+01
          0                 3           2             4    7     1      -0.8644404657E-03       4    7    1        -0.4794329851E-01      0.1047977737E+00
          0                 4           1             4    7     1       0.3439688108E-04       4    7    1         0.1960882706E-02      0.4286233222E-02

    ------------------------------------------------
       NWT REQUIRED            4 OUTER ITERATIONS 
       AND A TOTAL OF          7 INNER ITERATIONS.
    ------------------------------------------------

 NO OUTPUT CONTROL FOR STRESS PERIOD   20   TIME STEP   26
 
 SOLVING FOR HEAD 
                                                   Max.-Head-Change                         Max.-Flux-Residual
  Residual-Control   Outer-Iter.   Inner-Iter.     Column Row Layer    Maximum-Head-Change  Column Row Layer    Maximum-Flux-Residual          L2-NORM 
          0                 1           2             4    7     1      -0.1291978335E+00       4    7    1        -0.6780723130E+01      0.1484411681E+02
          0                 2           2             4    7     1       0.1256693104E-01       4    7    1         0.6780514420E+00      0.1484341062E+01
          0                 3           2             4    7     1      -0.8557644562E-03       4    7    1        -0.4746381911E-01      0.1039040987E+00
          0                 4           1             4    7     1       0.3405165474E-04       4    7    1         0.1941271985E-02      0.4249681762E-02

    ------------------------------------------------
       NWT REQUIRED            4 OUTER ITERATIONS 
       AND A TOTAL OF          7 INNER ITERATIONS.
    ------------------------------------------------

 NO OUTPUT CONTROL FOR STRESS PERIOD   20   TIME STEP   27
 
 SOLVING FOR HEAD 
                                                   Max.-Head-Change                         Max.-Flux-Residual
  Residual-Control   Outer-Iter.   Inner-Iter.     Column Row Layer    Maximum-Head-Change  Column Row Layer    Maximum-Flux-Residual          L2-NORM 
          0                 1           2             4    7     1      -0.1279017544E+00       4    7    1        -0.6712777359E+01      0.1472040071E+02
          0                 2           2             4    7     1       0.1244104668E-01       4    7    1         0.6712571625E+00      0.1472020523E+01
          0                 3           2             4    7     1      -0.8471921518E-03       4    7    1        -0.4698821630E-01      0.1030416576E+00
          0                 4           1             4    7     1       0.3371055480E-04       4    7    1         0.1921819812E-02      0.4214410101E-02

    ------------------------------------------------
       NWT REQUIRED            4 OUTER ITERATIONS 
       AND A TOTAL OF          7 INNER ITERATIONS.
    ------------------------------------------------

 NO OUTPUT CONTROL FOR STRESS PERIOD   20   TIME STEP   28
 
 SOLVING FOR HEAD 
                                                   Max.-Head-Change                         Max.-Flux-Residual
  Residual-Control   Outer-Iter.   Inner-Iter.     Column Row Layer    Maximum-Head-Change  Column Row Layer    Maximum-Flux-Residual          L2-NORM 
          0                 1           2             4    7     1      -0.1266176079E+00       4    7    1        -0.6645432285E+01      0.1459990660E+02
          0                 2           2             4    7     1       0.1231613877E-01       4    7    1         0.6645229576E+00      0.1459971522E+01
          0                 3           2             4    7     1      -0.8386863420E-03       4    7    1        -0.4651681891E-01      0.1021982238E+00
          0                 4           1             4    7     1       0.3337210107E-04       4    7    1         0.1902539650E-02      0.4179914257E-02

    ------------------------------------------------
       NWT REQUIRED            4 OUTER ITERATIONS 
       AND A TOTAL OF          7 INNER ITERATIONS.
    ------------------------------------------------

 NO OUTPUT CONTROL FOR STRESS PERIOD   20   TIME STEP   29
 
 SOLVING FOR HEAD 
                                                   Max.-Head-Change                         Max.-Flux-Residual
  Residual-Control   Outer-Iter.   Inner-Iter.     Column Row Layer    Maximum-Head-Change  Column Row Layer    Maximum-Flux-Residual          L2-NORM 
          0                 1           2             4    7     1      -0.1253457035E+00       4    7    1        -0.6578694132E+01      0.1448858363E+02
          0                 2           2             4    7     1       0.1219242176E-01       4    7    1         0.6578494512E+00      0.1448834043E+01
          0                 3           2             4    7     1      -0.8302616272E-03       4    7    1        -0.4604967035E-01      0.1014181020E+00
          0                 4           1             4    7     1       0.3303687402E-04       4    7    1         0.1883433261E-02      0.4147977554E-02

    ------------------------------------------------
       NWT REQUIRED            4 OUTER ITERATIONS 
       AND A TOTAL OF          7 INNER ITERATIONS.
    ------------------------------------------------

 NO OUTPUT CONTROL FOR STRESS PERIOD   20   TIME STEP   30



 STREAM LISTING     PERIOD     20   STEP       30

 LAYER ROW COL. STREAM  RCH.  FLOW INTO     FLOW TO   FLOW OUT OF   OVRLND.     DIRECT     STREAM       STREAM     STREAM     STREAM   STREAMBED  STREAMBED
                SEG.NO.  NO.  STRM. RCH.    AQUIFER    STRM. RCH.    RUNOFF     PRECIP       ET          HEAD       DEPTH      WIDTH   CONDCTNC.   GRADIENT

   1    1    1     1     1    1.6138E+01  1.9509E-01   1.5943E+01  0.000E+00  0.000E+00  0.000E+00  1.09408E+03  1.032E+00  1.075E+01  4.839E-02  1.344E+00
   1    2    2     1     2    1.5943E+01  3.0079E-01   1.5642E+01  0.000E+00  0.000E+00  0.000E+00  1.08909E+03  1.027E+00  1.067E+01  7.469E-02  1.342E+00
   1    3    3     1     3    1.5642E+01  2.5522E-01   1.5387E+01  0.000E+00  0.000E+00  0.000E+00  1.08344E+03  1.022E+00  1.058E+01  6.345E-02  1.341E+00
   1    3    4     1     4    1.5387E+01  2.3394E-01   1.5153E+01  0.000E+00  0.000E+00  0.000E+00  1.07843E+03  1.017E+00  1.049E+01  5.823E-02  1.339E+00
   1    4    5     2     1    1.3153E+01  2.9763E-01   1.2856E+01  0.000E+00  0.000E+00  0.000E+00  1.07275E+03  8.158E-01  1.200E+01  7.800E-02  1.272E+00
   1    5    6     2     2    1.2856E+01  2.2835E-01   1.2627E+01  0.000E+00  0.000E+00  0.000E+00  1.06732E+03  8.059E-01  1.200E+01  6.000E-02  1.269E+00
   1    6    6     2     3    1.2627E+01  2.2783E-01   1.2399E+01  0.000E+00  0.000E+00  0.000E+00  1.06259E+03  7.972E-01  1.200E+01  6.000E-02  1.266E+00
   1    7    6     2     4    1.2399E+01  2.2731E-01   1.2172E+01  0.000E+00  0.000E+00  0.000E+00  1.05786E+03  7.885E-01  1.200E+01  6.000E-02  1.263E+00
   1    8    6     2     5    1.2172E+01  2.2678E-01   1.1945E+01  0.000E+00  0.000E+00  0.000E+00  1.05314E+03  7.797E-01  1.200E+01  6.000E-02  1.260E+00
   1    3    5     3     1    2.0000E+00  2.8252E-01   1.7175E+00  0.000E+00  0.000E+00  0.000E+00  1.07555E+03  1.909E+00  9.636E+00  7.227E-02  1.955E+00
   1    3    6     3     2    1.7175E+00  2.4905E-01   1.4684E+00  0.000E+00  0.000E+00  0.000E+00  1.07264E+03  1.727E+00  8.909E+00  6.682E-02  1.864E+00
   1    3    7     3     3    1.4684E+00  1.9718E-01   1.2712E+00  0.000E+00  0.000E+00  0.000E+00  1.06987E+03  1.555E+00  8.218E+00  5.547E-02  1.777E+00
   1    4    8     3     4    1.2712E+00  2.2567E-01   1.0456E+00  0.000E+00  0.000E+00  0.000E+00  1.06682E+03  1.364E+00  7.455E+00  6.709E-02  1.682E+00
   1    5    8     3     5    1.0456E+00  1.5790E-01   8.8768E-01  0.000E+00  0.000E+00  0.000E+00  1.06362E+03  1.164E+00  6.655E+00  4.991E-02  1.582E+00
   1    6    8     3     6    8.8768E-01  5.5980E-02   8.3170E-01  0.000E+00  0.000E+00  0.000E+00  1.06158E+03  1.036E+00  6.145E+00  1.844E-02  1.518E+00
   1    5   10     4     1    1.0000E+01  9.0919E-02   9.9091E+00  0.000E+00  0.000E+00  0.000E+00  1.07836E+03  6.368E-01  1.000E+01  2.500E-02  1.212E+00
   1    5    9     4     2    9.9091E+00  1.8158E-01   9.7275E+00  0.000E+00  0.000E+00  0.000E+00  1.07154E+03  6.315E-01  1.000E+01  5.000E-02  1.211E+00
   1    6    8     4     3    9.7275E+00  1.2689E-01   9.6006E+00  0.000E+00  0.000E+00  0.000E+00  1.06381E+03  6.256E-01  1.000E+01  3.500E-02  1.209E+00
   1    6    8     5     1    1.0432E+01  2.2686E-01   1.0205E+01  0.000E+00  0.000E+00  0.000E+00  1.05868E+03  6.790E-01  1.542E+01  6.166E-02  1.226E+00
   1    7    7     5     2    1.0205E+01  2.7894E-01   9.9265E+00  0.000E+00  0.000E+00  0.000E+00  1.05417E+03  6.732E-01  1.519E+01  7.594E-02  1.224E+00
   1    8    7     5     3    9.9265E+00  1.9221E-01   9.7343E+00  0.000E+00  0.000E+00  0.000E+00  1.04992E+03  6.676E-01  1.497E+01  5.241E-02  1.223E+00
   1    8    6     5     4    9.7343E+00  1.3577E-01   9.5985E+00  0.000E+00  0.000E+00  0.000E+00  1.04691E+03  6.637E-01  1.482E+01  3.706E-02  1.221E+00
   1    9    6     6     1    2.1544E+01  2.4678E-01   2.1297E+01  0.000E+00  0.000E+00  0.000E+00  1.04384E+03  1.113E+00  1.200E+01  6.000E-02  1.371E+00
   1   10    7     6     2    2.1297E+01  2.4631E-01   2.1051E+01  0.000E+00  0.000E+00  0.000E+00  1.03929E+03  1.105E+00  1.200E+01  6.000E-02  1.368E+00
   1   11    7     6     3    2.1051E+01  2.4585E-01   2.0805E+01  0.000E+00  0.000E+00  0.000E+00  1.03473E+03  1.097E+00  1.200E+01  6.000E-02  1.366E+00
   1   12    7     6     4    2.0805E+01  2.4539E-01   2.0559E+01  0.000E+00  0.000E+00  0.000E+00  1.03018E+03  1.090E+00  1.200E+01  6.000E-02  1.363E+00
   1   13    7     6     5    2.0559E+01  6.6426E-03   2.0553E+01  0.000E+00  0.000E+00  0.000E+00  1.02699E+03  1.086E+00  1.200E+01  2.400E-02  9.226E-02
   1   14    9     7     1    1.5000E+02  1.3731E+00   1.4863E+02  0.000E+00  0.000E+00  0.000E+00  1.03987E+03  2.288E+00  5.529E+01  5.593E-01  8.183E-01
   1   13    8     7     2    1.4863E+02  1.9495E+00   1.4668E+02  0.000E+00  0.000E+00  0.000E+00  1.03478E+03  2.279E+00  5.525E+01  6.147E-01  1.057E+00
   1   13    7     7     3    1.4668E+02  1.6586E+00   1.4502E+02  0.000E+00  0.000E+00  0.000E+00  1.02969E+03  2.269E+00  5.521E+01  5.584E-01  9.901E-01
   1   13    6     8     1    1.6557E+02  1.0749E+00   1.6450E+02  0.000E+00  0.000E+00  0.000E+00  1.02479E+03  2.920E+00  4.233E+01  4.314E-01  8.306E-01
   1   13    5     8     2    1.6450E+02  3.1698E-01   1.6418E+02  0.000E+00  0.000E+00  0.000E+00  1.01854E+03  2.915E+00  4.227E+01  4.307E-01  2.453E-01
   1   13    4     8     3    1.6418E+02 -2.0149E+00   1.6619E+02  0.000E+00  0.000E+00  0.000E+00  1.01230E+03  2.921E+00  4.235E+01  4.315E+00 -1.556E-01
   1   13    3     8     4    1.6619E+02 -3.4741E+00   1.6967E+02  0.000E+00  0.000E+00  0.000E+00  1.00606E+03  2.939E+00  4.261E+01  4.342E+00 -2.667E-01
   1   13    2     8     5    1.6967E+02 -2.5934E+00   1.7226E+02  0.000E+00  0.000E+00  0.000E+00  9.99833E+02  2.958E+00  4.290E+01  4.371E+00 -1.977E-01
   1   13    1     8     6    1.7226E+02 -2.0124E+00   1.7427E+02  0.000E+00  0.000E+00  0.000E+00  9.94848E+02  2.973E+00  4.311E+01  2.636E+00 -2.545E-01
   1    8    6     9     1    0.0000E+00  0.0000E+00   0.0000E+00  0.000E+00  0.000E+00  0.000E+00  1.07875E+03  0.000E+00  4.000E+00  0.000E+00  1.000E+00
   1    8    5     9     2    0.0000E+00  0.0000E+00   0.0000E+00  0.000E+00  0.000E+00  0.000E+00  1.07825E+03  0.000E+00  4.000E+00  0.000E+00  1.000E+00





UNSATURATED ZONE PACKAGE VOLUMETRIC BUDGET FOR  TIME STEP    30 STRESS PERIOD   20
  ------------------------------------------------------------------------------



     CUMULATIVE VOLUMES      L**3       RATES FOR THIS TIME STEP      L**3/T
     ------------------                 ------------------------

           IN:                                      IN:
           ---                                      ---
        INFILTRATION =   692559321.0797          INFILTRATION =          60.8175

          OUT:                                     OUT:
          ----                                     ----
              UZF ET =   691813853.5355                UZF ET =          60.8175
        UZF RECHARGE =       73224.0000          UZF RECHARGE =       0.0000E+00

            IN - OUT =      672243.5441              IN - OUT =       0.0000E+00

          STORAGE:                                 STORAGE:
          --------                                 --------
      STORAGE CHANGE =      672243.4909        STORAGE CHANGE =       0.0000E+00

 PERCENT DISCREPANCY IS DIFFERENCE BETWEEN IN-OUT MINUS CHANGE IN STORAGE
 DIVIDED BY THE AVERAGE OF IN AND OUT TIMES 100

 PERCENT DISCREPANCY =           0.00     PERCENT DISCREPANCY =           0.00






1
  VOLUMETRIC BUDGET FOR AGRICULTURAL FIELDS AT  END OF TIME STEP   30, STRESS PERIOD  20
  ------------------------------------------------------------------------------

     CUMULATIVE VOLUMES      L**3       RATES FOR THIS TIME STEP      L**3/T
     ------------------                 ------------------------

           IN:                                      IN:
           ---                                      ---
               AG WELLS  =   650135360.0000                 AG WELLS  =          59.9700
      DIVERSION SEGMENTS =           0.0000        DIVERSION SEGMENTS =           0.0000
       IRRIGATION PONDS  =           0.0000         IRRIGATION PONDS  =           0.0000
           GW IRRIGATION =           0.0000             GW IRRIGATION =           0.0000
           SW IRRIGATION =           0.0000             SW IRRIGATION =           0.0000
        SYSTEM LOSSES GW =           0.0000          SYSTEM LOSSES GW =           0.0000
        SYSTEM LOSSES SW =           0.0000          SYSTEM LOSSES SW =           0.0000

                TOTAL IN =   650135360.0000                  TOTAL IN =          59.9700

          OUT:                                     OUT:
          ----                                     ----
               AG WELLS  =           0.0000                 AG WELLS  =           0.0000
      DIVERSION SEGMENTS =           0.0000        DIVERSION SEGMENTS =           0.0000
       IRRIGATION PONDS  =           0.0000         IRRIGATION PONDS  =           0.0000
           GW IRRIGATION =   650135360.0000             GW IRRIGATION =          59.9700
           SW IRRIGATION =           0.0000             SW IRRIGATION =           0.0000
        SYSTEM LOSSES GW =           0.0000          SYSTEM LOSSES GW =           0.0000
        SYSTEM LOSSES SW =           0.0000          SYSTEM LOSSES SW =           0.0000

               TOTAL OUT =   650135360.0000                 TOTAL OUT =          59.9700

                IN - OUT =           0.0000                  IN - OUT =           0.0000

     PERCENT DISCREPANCY =           0.00         PERCENT DISCREPANCY =           0.00



1
  VOLUMETRIC BUDGET FOR ENTIRE MODEL AT END OF TIME STEP   30, STRESS PERIOD  20
  ------------------------------------------------------------------------------

     CUMULATIVE VOLUMES      L**3       RATES FOR THIS TIME STEP      L**3/T
     ------------------                 ------------------------

           IN:                                      IN:
           ---                                      ---
             STORAGE     =   791202112.0000               STORAGE     =          58.2552
       CONSTANT HEAD     =           0.0000         CONSTANT HEAD     =           0.0000
     HEAD DEP BOUNDS     =    14415486.0000       HEAD DEP BOUNDS     =           0.2883
      STREAM LEAKAGE     =   595619584.0000        STREAM LEAKAGE     =          11.9585
        UZF RECHARGE     =       73223.9531          UZF RECHARGE     =           0.0000
               GW ET     =           0.0000                 GW ET     =           0.0000
     SURFACE LEAKAGE     =           0.0000       SURFACE LEAKAGE     =           0.0000
           AG WELLS      =           0.0000             AG WELLS      =           0.0000

                TOTAL IN =  1401310464.0000                  TOTAL IN =          70.5020

          OUT:                                     OUT:
          ----                                     ----
             STORAGE     =   230756896.0000               STORAGE     =           0.1483
       CONSTANT HEAD     =           0.0000         CONSTANT HEAD     =           0.0000
     HEAD DEP BOUNDS     =    14475056.0000       HEAD DEP BOUNDS     =           0.2892
      STREAM LEAKAGE     =   505944608.0000        STREAM LEAKAGE     =          10.0947
        UZF RECHARGE     =           0.0000          UZF RECHARGE     =           0.0000
               GW ET     =           0.0000                 GW ET     =           0.0000
     SURFACE LEAKAGE     =           0.0000       SURFACE LEAKAGE     =           0.0000
           AG WELLS      =   650135360.0000             AG WELLS      =          59.9700

               TOTAL OUT =  1401312000.0000                 TOTAL OUT =          70.5022

                IN - OUT =       -1536.0000                  IN - OUT =      -2.0599E-04

     PERCENT DISCREPANCY =          -0.00         PERCENT DISCREPANCY =          -0.00






         TIME SUMMARY AT END OF TIME STEP   30 IN STRESS PERIOD   20
                    SECONDS     MINUTES      HOURS       DAYS        YEARS
                    -----------------------------------------------------------
   TIME STEP LENGTH  87667.      1461.1      24.352      1.0147     2.77799E-03
 STRESS PERIOD TIME 2.63000E+06  43833.      730.56      30.440     8.33397E-02
         TOTAL TIME 5.00565E+07 8.34276E+05  13905.      579.36      1.5862    
1
1
                            STRESS PERIOD NO.   21, LENGTH =   2630000.    
                            -----------------------------------------------

                              NUMBER OF TIME STEPS =    30

                               MULTIPLIER FOR DELT =     1.000

                            INITIAL TIME STEP SIZE =   87666.66    

 REUSING NON-PARAMETER GHB CELLS FROM LAST STRESS PERIOD

      2 GHB CELLS

 REUSING STREAM SEGMENT DATA FROM LAST STRESS PERIOD



            AREAL INFILTRATION RATE
 READING ON UNIT   19 WITH FORMAT: (FREE)              

            1           2           3           4           5           6           7           8           9          10
 ........................................................................................................................
   1   1.0000E-10  2.0000E-10   0.000       0.000       0.000       0.000       0.000       0.000       0.000       0.000    
   2   2.0000E-10  1.0000E-10  2.0000E-10   0.000       0.000      8.0000E-10  8.0000E-10  5.0000E-10   0.000       0.000    
   3    0.000      5.0000E-10  1.0000E-10  1.0000E-10  8.0000E-10  8.0000E-10  5.0000E-10  5.0000E-10   0.000       0.000    
   4   8.0000E-10  5.0000E-10  1.0000E-10  1.0000E-10  1.0000E-10  1.0000E-10  1.0000E-10  1.0000E-10  2.0000E-10   0.000    
   5   8.0000E-10  5.0000E-10  1.0000E-10  1.0000E-10  1.0000E-10  1.0000E-10  1.0000E-10  1.0000E-10  1.0000E-10  1.0000E-10
   6   8.0000E-10  5.0000E-10  5.0000E-10  2.0000E-10  2.0000E-10  1.0000E-10  1.0000E-10  1.0000E-10  1.0000E-10  5.0000E-10
   7   8.0000E-10  5.0000E-10  5.0000E-10  2.0000E-10  2.0000E-10  1.0000E-10  1.0000E-10  2.0000E-10  2.0000E-10   0.000    
   8    0.000      5.0000E-10  5.0000E-10  2.0000E-10  2.0000E-10  1.0000E-10  1.0000E-10  2.0000E-10  5.0000E-10   0.000    
   9    0.000      5.0000E-10  5.0000E-10  2.0000E-10  2.0000E-10  1.0000E-10  1.0000E-10  2.0000E-10  5.0000E-10   0.000    
  10    0.000      5.0000E-10  5.0000E-10  2.0000E-10  2.0000E-10  1.0000E-10  1.0000E-10  2.0000E-10  5.0000E-10  8.0000E-10
  11    0.000      1.0000E-10  1.0000E-10  1.0000E-10  1.0000E-10  1.0000E-10  1.0000E-10  2.0000E-10  5.0000E-10   0.000    
  12   1.0000E-10  1.0000E-10  1.0000E-10  1.0000E-10  1.0000E-10  1.0000E-10  1.0000E-10  1.0000E-10  2.0000E-10   0.000    
  13   1.0000E-10  1.0000E-10  2.0000E-10  2.0000E-10  2.0000E-10  2.0000E-10  2.0000E-10  1.0000E-10  1.0000E-10   0.000    
  14    0.000      2.0000E-10  5.0000E-10  5.0000E-10  5.0000E-10  5.0000E-10  5.0000E-10  2.0000E-10  1.0000E-10   0.000    
  15    0.000       0.000      8.0000E-10  8.0000E-10  8.0000E-10  8.0000E-10   0.000       0.000       0.000       0.000    

                  ET RATE =  3.250000E-07

 USING ET EXTINCTION DEPTH FROM PREVIOUS STRESS PERIOD. CURRENT PERIOD IS:      21

 USING EXTINCTION WATER CONTENT FROM PREVIOUS STRESS PERIOD. CURRENT PERIOD IS:      21

 USING AIR ENTRY PRESSURE FROM PREVIOUS STRESS PERIOD. CURRENT PERIOD IS:      21

 USING ROOT PRESSURE HEAD FROM PREVIOUS STRESS PERIOD. CURRENT PERIOD IS:      21

 USING ROOT ACTIVITY FROM PREVIOUS STRESS PERIOD. CURRENT PERIOD IS:      21

 PROCESSING AG STRESS PERIOD DATA

 READING AG STRESS PERIOD DATA

 READING IRRIGATION SEGMENT

 READING IRRIGATION WELL

 READING SUPPLEMENTAL WELL

 NO IRRPOND OR REUSING IRRPOND DATA FROM LAST STRESS PERIOD

 END PROCESSING AG STRESS PERIOD DATA OPTIONS
 
 SOLVING FOR HEAD 
                                                   Max.-Head-Change                         Max.-Flux-Residual
  Residual-Control   Outer-Iter.   Inner-Iter.     Column Row Layer    Maximum-Head-Change  Column Row Layer    Maximum-Flux-Residual          L2-NORM 
          0                 1           2             4    7     1      -0.8816928623E-01       4    7    1        -0.4637612543E+01      0.1035812709E+02
          0                 2           2             4    7     1       0.8568804048E-02       4    7    1         0.4631580990E+00      0.1035732764E+01
          0                 3           2             4    7     1      -0.5835054454E-03       4    7    1        -0.3242118898E-01      0.7249995514E-01
          0                 4           1             4    7     1       0.2321822065E-04       4    7    1         0.1326027984E-02      0.2965040833E-02

    ------------------------------------------------
       NWT REQUIRED            4 OUTER ITERATIONS 
       AND A TOTAL OF          7 INNER ITERATIONS.
    ------------------------------------------------

 NO OUTPUT CONTROL FOR STRESS PERIOD   21   TIME STEP    1
 
 SOLVING FOR HEAD 
                                                   Max.-Head-Change                         Max.-Flux-Residual
  Residual-Control   Outer-Iter.   Inner-Iter.     Column Row Layer    Maximum-Head-Change  Column Row Layer    Maximum-Flux-Residual          L2-NORM 
          0                 1           2             4    7     1      -0.8714601190E-01       4    7    1        -0.4581430601E+01      0.1029540956E+02
          0                 2           2             4    7     1       0.8476765390E-02       4    7    1         0.4581319226E+00      0.1029519098E+01
          0                 3           2             4    7     1      -0.5772379129E-03       4    7    1        -0.3206935381E-01      0.7206518262E-01
          0                 4           1             4    7     1       0.2296882963E-04       4    7    1         0.1311637906E-02      0.2947392347E-02

    ------------------------------------------------
       NWT REQUIRED            4 OUTER ITERATIONS 
       AND A TOTAL OF          7 INNER ITERATIONS.
    ------------------------------------------------

 NO OUTPUT CONTROL FOR STRESS PERIOD   21   TIME STEP    2
 
 SOLVING FOR HEAD 
                                                   Max.-Head-Change                         Max.-Flux-Residual
  Residual-Control   Outer-Iter.   Inner-Iter.     Column Row Layer    Maximum-Head-Change  Column Row Layer    Maximum-Flux-Residual          L2-NORM 
          0                 1           2             4    7     1      -0.8614043529E-01       4    7    1        -0.4527857328E+01      0.1023430275E+02
          0                 2           2             4    7     1       0.8378956165E-02       4    7    1         0.4527749157E+00      0.1023490944E+01
          0                 3           2             4    7     1      -0.5705774209E-03       4    7    1        -0.3169436012E-01      0.7164339121E-01
          0                 4           1             4    7     1       0.2270380256E-04       4    7    1         0.1296300651E-02      0.2930152101E-02

    ------------------------------------------------
       NWT REQUIRED            4 OUTER ITERATIONS 
       AND A TOTAL OF          7 INNER ITERATIONS.
    ------------------------------------------------

 NO OUTPUT CONTROL FOR STRESS PERIOD   21   TIME STEP    3
 
 SOLVING FOR HEAD 
                                                   Max.-Head-Change                         Max.-Flux-Residual
  Residual-Control   Outer-Iter.   Inner-Iter.     Column Row Layer    Maximum-Head-Change  Column Row Layer    Maximum-Flux-Residual          L2-NORM 
          0                 1           2             4    7     1      -0.8515955841E-01       4    7    1        -0.4475608315E+01      0.1017453468E+02
          0                 2           2             4    7     1       0.8283546897E-02       4    7    1         0.4475503231E+00      0.1017435453E+01
          0                 3           2             4    7     1      -0.5640803594E-03       4    7    1        -0.3132863557E-01      0.7121963285E-01
          0                 4           1             4    7     1       0.2244527835E-04       4    7    1         0.1281342508E-02      0.2912829620E-02

    ------------------------------------------------
       NWT REQUIRED            4 OUTER ITERATIONS 
       AND A TOTAL OF          7 INNER ITERATIONS.
    ------------------------------------------------

 NO OUTPUT CONTROL FOR STRESS PERIOD   21   TIME STEP    4
 
 SOLVING FOR HEAD 
                                                   Max.-Head-Change                         Max.-Flux-Residual
  Residual-Control   Outer-Iter.   Inner-Iter.     Column Row Layer    Maximum-Head-Change  Column Row Layer    Maximum-Flux-Residual          L2-NORM 
          0                 1           2             4    7     1      -0.8420257813E-01       4    7    1        -0.4424640168E+01      0.1011603062E+02
          0                 2           2             4    7     1       0.8190463190E-02       4    7    1         0.4424538058E+00      0.1011586520E+01
          0                 3           2             4    7     1      -0.5577416615E-03       4    7    1        -0.3097187640E-01      0.7081033148E-01
          0                 4           1             4    7     1       0.2219305646E-04       4    7    1         0.1266751069E-02      0.2904792949E-02

    ------------------------------------------------
       NWT REQUIRED            4 OUTER ITERATIONS 
       AND A TOTAL OF          7 INNER ITERATIONS.
    ------------------------------------------------

 NO OUTPUT CONTROL FOR STRESS PERIOD   21   TIME STEP    5
 
 SOLVING FOR HEAD 
                                                   Max.-Head-Change                         Max.-Flux-Residual
  Residual-Control   Outer-Iter.   Inner-Iter.     Column Row Layer    Maximum-Head-Change  Column Row Layer    Maximum-Flux-Residual          L2-NORM 
          0                 1           2             4    7     1      -0.8326882964E-01       4    7    1        -0.4374918274E+01      0.1005880283E+02
          0                 2           2             4    7     1       0.8099639142E-02       4    7    1         0.4374819029E+00      0.1005865023E+01
          0                 3           2             4    7     1      -0.5515568390E-03       4    7    1        -0.3062384033E-01      0.7040993410E-01
          0                 4           1             4    7     1       0.2194695636E-04       4    7    1         0.1252516373E-02      0.2879733249E-02

    ------------------------------------------------
       NWT REQUIRED            4 OUTER ITERATIONS 
       AND A TOTAL OF          7 INNER ITERATIONS.
    ------------------------------------------------

 NO OUTPUT CONTROL FOR STRESS PERIOD   21   TIME STEP    6
 
 SOLVING FOR HEAD 
                                                   Max.-Head-Change                         Max.-Flux-Residual
  Residual-Control   Outer-Iter.   Inner-Iter.     Column Row Layer    Maximum-Head-Change  Column Row Layer    Maximum-Flux-Residual          L2-NORM 
          0                 1           2             4    7     1      -0.8235766180E-01       4    7    1        -0.4326408225E+01      0.1000279195E+02
          0                 2           2             4    7     1       0.8011011420E-02       4    7    1         0.4326311738E+00      0.1000265055E+01
          0                 3           2             4    7     1      -0.5455215803E-03       4    7    1        -0.3028428656E-01      0.7001801565E-01
          0                 4           1             4    7     1       0.2170680790E-04       4    7    1         0.1238628619E-02      0.2863699294E-02

    ------------------------------------------------
       NWT REQUIRED            4 OUTER ITERATIONS 
       AND A TOTAL OF          7 INNER ITERATIONS.
    ------------------------------------------------

 NO OUTPUT CONTROL FOR STRESS PERIOD   21   TIME STEP    7
 
 SOLVING FOR HEAD 
                                                   Max.-Head-Change                         Max.-Flux-Residual
  Residual-Control   Outer-Iter.   Inner-Iter.     Column Row Layer    Maximum-Head-Change  Column Row Layer    Maximum-Flux-Residual          L2-NORM 
          0                 1           2             4    7     1      -0.8146804396E-01       4    7    1        -0.4279054574E+01      0.9947940210E+01
          0                 2           2             4    7     1       0.7924479777E-02       4    7    1         0.4278960746E+00      0.9947808660E+00
          0                 3           2             4    7     1      -0.5396290577E-03       4    7    1        -0.2995282694E-01      0.6963419398E-01
          0                 4           1             4    7     1       0.2147233926E-04       4    7    1         0.1225071918E-02      0.2848006694E-02

    ------------------------------------------------
       NWT REQUIRED            4 OUTER ITERATIONS 
       AND A TOTAL OF          7 INNER ITERATIONS.
    ------------------------------------------------

 NO OUTPUT CONTROL FOR STRESS PERIOD   21   TIME STEP    8
 
 SOLVING FOR HEAD 
                                                   Max.-Head-Change                         Max.-Flux-Residual
  Residual-Control   Outer-Iter.   Inner-Iter.     Column Row Layer    Maximum-Head-Change  Column Row Layer    Maximum-Flux-Residual          L2-NORM 
          0                 1           2             4    7     1      -0.8059964034E-01       4    7    1        -0.4232840015E+01      0.9894210534E+01
          0                 2           2             4    7     1       0.7840011555E-02       4    7    1         0.4232748748E+00      0.9894087918E+00
          0                 3           2             4    7     1      -0.5338770482E-03       4    7    1        -0.2962934040E-01      0.6925822803E-01
          0                 4           1             4    7     1       0.2124346144E-04       4    7    1         0.1211841306E-02      0.2832641491E-02

    ------------------------------------------------
       NWT REQUIRED            4 OUTER ITERATIONS 
       AND A TOTAL OF          7 INNER ITERATIONS.
    ------------------------------------------------

 NO OUTPUT CONTROL FOR STRESS PERIOD   21   TIME STEP    9
 
 SOLVING FOR HEAD 
                                                   Max.-Head-Change                         Max.-Flux-Residual
  Residual-Control   Outer-Iter.   Inner-Iter.     Column Row Layer    Maximum-Head-Change  Column Row Layer    Maximum-Flux-Residual          L2-NORM 
          0                 1           2             4    7     1      -0.7975145353E-01       4    7    1        -0.4187711006E+01      0.9841536656E+01
          0                 2           2             4    7     1       0.7757509741E-02       4    7    1         0.4187622206E+00      0.9841421653E+00
          0                 3           2             4    7     1      -0.5282589449E-03       4    7    1        -0.2931345212E-01      0.6888961318E-01
          0                 4           1             4    7     1       0.2101991220E-04       4    7    1         0.1198921475E-02      0.2817574350E-02

    ------------------------------------------------
       NWT REQUIRED            4 OUTER ITERATIONS 
       AND A TOTAL OF          7 INNER ITERATIONS.
    ------------------------------------------------

 NO OUTPUT CONTROL FOR STRESS PERIOD   21   TIME STEP   10
 
 SOLVING FOR HEAD 
                                                   Max.-Head-Change                         Max.-Flux-Residual
  Residual-Control   Outer-Iter.   Inner-Iter.     Column Row Layer    Maximum-Head-Change  Column Row Layer    Maximum-Flux-Residual          L2-NORM 
          0                 1           2             4    7     1      -0.7892305759E-01       4    7    1        -0.4143644729E+01      0.9789897912E+01
          0                 2           2             4    7     1       0.7676932906E-02       4    7    1         0.4143558306E+00      0.9789789621E+00
          0                 3           2             4    7     1      -0.5227719266E-03       4    7    1        -0.2900500243E-01      0.6852823514E-01
          0                 4           1             4    7     1       0.2080157869E-04       4    7    1         0.1186305862E-02      0.2802783264E-02

    ------------------------------------------------
       NWT REQUIRED            4 OUTER ITERATIONS 
       AND A TOTAL OF          7 INNER ITERATIONS.
    ------------------------------------------------

 NO OUTPUT CONTROL FOR STRESS PERIOD   21   TIME STEP   11
 
 SOLVING FOR HEAD 
                                                   Max.-Head-Change                         Max.-Flux-Residual
  Residual-Control   Outer-Iter.   Inner-Iter.     Column Row Layer    Maximum-Head-Change  Column Row Layer    Maximum-Flux-Residual          L2-NORM 
          0                 1           2             4    7     1      -0.7811376917E-01       4    7    1        -0.4100604648E+01      0.9739260080E+01
          0                 2           2             4    7     1       0.7598214583E-02       4    7    1         0.4100520514E+00      0.9739157845E+00
          0                 3           2             4    7     1      -0.5174114678E-03       4    7    1        -0.2870373560E-01      0.6817385322E-01
          0                 4           1             4    7     1       0.2058828132E-04       4    7    1         0.1173984047E-02      0.2788295860E-02

    ------------------------------------------------
       NWT REQUIRED            4 OUTER ITERATIONS 
       AND A TOTAL OF          7 INNER ITERATIONS.
    ------------------------------------------------

 NO OUTPUT CONTROL FOR STRESS PERIOD   21   TIME STEP   12
 
 SOLVING FOR HEAD 
                                                   Max.-Head-Change                         Max.-Flux-Residual
  Residual-Control   Outer-Iter.   Inner-Iter.     Column Row Layer    Maximum-Head-Change  Column Row Layer    Maximum-Flux-Residual          L2-NORM 
          0                 1           2             4    7     1      -0.7732279306E-01       4    7    1        -0.4058548110E+01      0.9689565399E+01
          0                 2           2             4    7     1       0.7521277429E-02       4    7    1         0.4058466183E+00      0.9689468602E+00
          0                 3           2             4    7     1      -0.5121723009E-03       4    7    1        -0.2840935306E-01      0.6782606032E-01
          0                 4           1             4    7     1       0.2037980965E-04       4    7    1         0.1161943789E-02      0.2774070929E-02

    ------------------------------------------------
       NWT REQUIRED            4 OUTER ITERATIONS 
       AND A TOTAL OF          7 INNER ITERATIONS.
    ------------------------------------------------

 NO OUTPUT CONTROL FOR STRESS PERIOD   21   TIME STEP   13
 
 SOLVING FOR HEAD 
                                                   Max.-Head-Change                         Max.-Flux-Residual
  Residual-Control   Outer-Iter.   Inner-Iter.     Column Row Layer    Maximum-Head-Change  Column Row Layer    Maximum-Flux-Residual          L2-NORM 
          0                 1           2             4    7     1      -0.7654976269E-01       4    7    1        -0.4017455543E+01      0.9640802380E+01
          0                 2           2             4    7     1       0.7446085788E-02       4    7    1         0.4017375744E+00      0.9640710327E+00
          0                 3           2             4    7     1      -0.5070519984E-03       4    7    1        -0.2812171785E-01      0.6748478213E-01
          0                 4           1             4    7     1       0.2017606868E-04       4    7    1         0.1150179513E-02      0.2760109239E-02

    ------------------------------------------------
       NWT REQUIRED            4 OUTER ITERATIONS 
       AND A TOTAL OF          7 INNER ITERATIONS.
    ------------------------------------------------

 NO OUTPUT CONTROL FOR STRESS PERIOD   21   TIME STEP   14
 
 SOLVING FOR HEAD 
                                                   Max.-Head-Change                         Max.-Flux-Residual
  Residual-Control   Outer-Iter.   Inner-Iter.     Column Row Layer    Maximum-Head-Change  Column Row Layer    Maximum-Flux-Residual          L2-NORM 
          0                 1           2             4    7     1      -0.7579392783E-01       4    7    1        -0.3977286280E+01      0.9592937247E+01
          0                 2           2             4    7     1       0.7372566689E-02       4    7    1         0.3977208532E+00      0.9592849560E+00
          0                 3           2             4    7     1      -0.5020455910E-03       4    7    1        -0.2784054532E-01      0.6714979917E-01
          0                 4           1             4    7     1       0.1997685913E-04       4    7    1         0.1138679552E-02      0.2746422429E-02

    ------------------------------------------------
       NWT REQUIRED            4 OUTER ITERATIONS 
       AND A TOTAL OF          7 INNER ITERATIONS.
    ------------------------------------------------

 NO OUTPUT CONTROL FOR STRESS PERIOD   21   TIME STEP   15
 
 SOLVING FOR HEAD 
                                                   Max.-Head-Change                         Max.-Flux-Residual
  Residual-Control   Outer-Iter.   Inner-Iter.     Column Row Layer    Maximum-Head-Change  Column Row Layer    Maximum-Flux-Residual          L2-NORM 
          0                 1           2             4    7     1      -0.7505482575E-01       4    7    1        -0.3938015858E+01      0.9545938020E+01
          0                 2           2             4    7     1       0.7300675126E-02       4    7    1         0.3937940087E+00      0.9545854316E+00
          0                 3           2             4    7     1      -0.4971500135E-03       4    7    1        -0.2756566421E-01      0.6682085773E-01
          0                 4           1             4    7     1       0.1978205966E-04       4    7    1         0.1127436904E-02      0.2732969903E-02

    ------------------------------------------------
       NWT REQUIRED            4 OUTER ITERATIONS 
       AND A TOTAL OF          7 INNER ITERATIONS.
    ------------------------------------------------

 NO OUTPUT CONTROL FOR STRESS PERIOD   21   TIME STEP   16
 
 SOLVING FOR HEAD 
                                                   Max.-Head-Change                         Max.-Flux-Residual
  Residual-Control   Outer-Iter.   Inner-Iter.     Column Row Layer    Maximum-Head-Change  Column Row Layer    Maximum-Flux-Residual          L2-NORM 
          0                 1           2             4    7     1      -0.7433188106E-01       4    7    1        -0.3899613063E+01      0.9499782483E+01
          0                 2           2             4    7     1       0.7230355132E-02       4    7    1         0.3899539200E+00      0.9499702441E+00
          0                 3           2             4    7     1      -0.4923614550E-03       4    7    1        -0.2729685607E-01      0.6649780886E-01
          0                 4           1             4    7     1       0.1959151865E-04       4    7    1         0.1116442649E-02      0.2719753000E-02

    ------------------------------------------------
       NWT REQUIRED            4 OUTER ITERATIONS 
       AND A TOTAL OF          7 INNER ITERATIONS.
    ------------------------------------------------

 NO OUTPUT CONTROL FOR STRESS PERIOD   21   TIME STEP   17
 
 SOLVING FOR HEAD 
                                                   Max.-Head-Change                         Max.-Flux-Residual
  Residual-Control   Outer-Iter.   Inner-Iter.     Column Row Layer    Maximum-Head-Change  Column Row Layer    Maximum-Flux-Residual          L2-NORM 
          0                 1           2             4    7     1      -0.7362454303E-01       4    7    1        -0.3862048062E+01      0.9454450214E+01
          0                 2           2             4    7     1       0.7161553143E-02       4    7    1         0.3861976039E+00      0.9454373544E+00
          0                 3           2             4    7     1      -0.4876762683E-03       4    7    1        -0.2703391210E-01      0.6618053298E-01
          0                 4           1             4    7     1       0.1940509080E-04       4    7    1         0.1105688242E-02      0.2706775531E-02

    ------------------------------------------------
       NWT REQUIRED            4 OUTER ITERATIONS 
       AND A TOTAL OF          7 INNER ITERATIONS.
    ------------------------------------------------

 NO OUTPUT CONTROL FOR STRESS PERIOD   21   TIME STEP   18
 
 SOLVING FOR HEAD 
                                                   Max.-Head-Change                         Max.-Flux-Residual
  Residual-Control   Outer-Iter.   Inner-Iter.     Column Row Layer    Maximum-Head-Change  Column Row Layer    Maximum-Flux-Residual          L2-NORM 
          0                 1           2             4    7     1      -0.7293227490E-01       4    7    1        -0.3825292300E+01      0.9409901657E+01
          0                 2           2             4    7     1       0.7094216950E-02       4    7    1         0.3825222052E+00      0.9409827632E+00
          0                 3           2             4    7     1      -0.4830908973E-03       4    7    1        -0.2677663238E-01      0.6586872658E-01
          0                 4           1             4    7     1       0.1922263462E-04       4    7    1         0.1095165487E-02      0.2694020635E-02

    ------------------------------------------------
       NWT REQUIRED            4 OUTER ITERATIONS 
       AND A TOTAL OF          7 INNER ITERATIONS.
    ------------------------------------------------

 NO OUTPUT CONTROL FOR STRESS PERIOD   21   TIME STEP   19
 
 SOLVING FOR HEAD 
                                                   Max.-Head-Change                         Max.-Flux-Residual
  Residual-Control   Outer-Iter.   Inner-Iter.     Column Row Layer    Maximum-Head-Change  Column Row Layer    Maximum-Flux-Residual          L2-NORM 
          0                 1           2             4    7     1      -0.7225483048E-01       4    7    1        -0.3789332368E+01      0.9366138007E+01
          0                 2           2             4    7     1       0.7028322608E-02       4    7    1         0.3789263833E+00      0.9366066563E+00
          0                 3           2             4    7     1      -0.4786037124E-03       4    7    1        -0.2652492314E-01      0.6556240800E-01
          0                 4           1             4    7     1       0.1904408530E-04       4    7    1         0.1084870565E-02      0.2681500026E-02

    ------------------------------------------------
       NWT REQUIRED            4 OUTER ITERATIONS 
       AND A TOTAL OF          7 INNER ITERATIONS.
    ------------------------------------------------

 NO OUTPUT CONTROL FOR STRESS PERIOD   21   TIME STEP   20
 
 SOLVING FOR HEAD 
                                                   Max.-Head-Change                         Max.-Flux-Residual
  Residual-Control   Outer-Iter.   Inner-Iter.     Column Row Layer    Maximum-Head-Change  Column Row Layer    Maximum-Flux-Residual          L2-NORM 
          0                 1           2             4    7     1      -0.7159144100E-01       4    7    1        -0.3754126650E+01      0.9323120497E+01
          0                 2           2             4    7     1       0.6963795342E-02       4    7    1         0.3754059770E+00      0.9323051445E+00
          0                 3           2             4    7     1      -0.4742096209E-03       4    7    1        -0.2627849302E-01      0.6526132409E-01
          0                 4           1             4    7     1       0.1886924043E-04       4    7    1         0.1074791573E-02      0.2669187401E-02

    ------------------------------------------------
       NWT REQUIRED            4 OUTER ITERATIONS 
       AND A TOTAL OF          7 INNER ITERATIONS.
    ------------------------------------------------

 NO OUTPUT CONTROL FOR STRESS PERIOD   21   TIME STEP   21
 
 SOLVING FOR HEAD 
                                                   Max.-Head-Change                         Max.-Flux-Residual
  Residual-Control   Outer-Iter.   Inner-Iter.     Column Row Layer    Maximum-Head-Change  Column Row Layer    Maximum-Flux-Residual          L2-NORM 
          0                 1           2             4    7     1      -0.7094176656E-01       4    7    1        -0.3719656922E+01      0.9280836015E+01
          0                 2           2             4    7     1       0.6900602091E-02       4    7    1         0.3719591639E+00      0.9280769171E+00
          0                 3           2             4    7     1      -0.4699063715E-03       4    7    1        -0.2603721448E-01      0.6496535213E-01
          0                 4           1             4    7     1       0.1869801023E-04       4    7    1         0.1064923270E-02      0.2657076673E-02

    ------------------------------------------------
       NWT REQUIRED            4 OUTER ITERATIONS 
       AND A TOTAL OF          7 INNER ITERATIONS.
    ------------------------------------------------

 NO OUTPUT CONTROL FOR STRESS PERIOD   21   TIME STEP   22
 
 SOLVING FOR HEAD 
                                                   Max.-Head-Change                         Max.-Flux-Residual
  Residual-Control   Outer-Iter.   Inner-Iter.     Column Row Layer    Maximum-Head-Change  Column Row Layer    Maximum-Flux-Residual          L2-NORM 
          0                 1           2             4    7     1      -0.7030548122E-01       4    7    1        -0.3685905555E+01      0.9239270524E+01
          0                 2           2             4    7     1       0.6838711155E-02       4    7    1         0.3685841815E+00      0.9239205682E+00
          0                 3           2             4    7     1      -0.4656918059E-03       4    7    1        -0.2580096414E-01      0.6467442111E-01
          0                 4           1             4    7     1       0.1853030881E-04       4    7    1         0.1055260617E-02      0.2645184102E-02

    ------------------------------------------------
       NWT REQUIRED            4 OUTER ITERATIONS 
       AND A TOTAL OF          7 INNER ITERATIONS.
    ------------------------------------------------

 NO OUTPUT CONTROL FOR STRESS PERIOD   21   TIME STEP   23
 
 SOLVING FOR HEAD 
                                                   Max.-Head-Change                         Max.-Flux-Residual
  Residual-Control   Outer-Iter.   Inner-Iter.     Column Row Layer    Maximum-Head-Change  Column Row Layer    Maximum-Flux-Residual          L2-NORM 
          0                 1           2             4    7     1      -0.6968200473E-01       4    7    1        -0.3652841232E+01      0.9198395374E+01
          0                 2           2             4    7     1       0.6778066095E-02       4    7    1         0.3652778984E+00      0.9198332412E+00
          0                 3           2             4    7     1      -0.4615620806E-03       4    7    1        -0.2556952283E-01      0.6438830948E-01
          0                 4           1             4    7     1       0.1836598315E-04       4    7    1         0.1045794648E-02      0.2633472021E-02

    ------------------------------------------------
       NWT REQUIRED            4 OUTER ITERATIONS 
       AND A TOTAL OF          7 INNER ITERATIONS.
    ------------------------------------------------

 NO OUTPUT CONTROL FOR STRESS PERIOD   21   TIME STEP   24
 
 SOLVING FOR HEAD 
                                                   Max.-Head-Change                         Max.-Flux-Residual
  Residual-Control   Outer-Iter.   Inner-Iter.     Column Row Layer    Maximum-Head-Change  Column Row Layer    Maximum-Flux-Residual          L2-NORM 
          0                 1           2             4    7     1      -0.6907104843E-01       4    7    1        -0.3620448282E+01      0.9158206835E+01
          0                 2           2             4    7     1       0.6718638834E-02       4    7    1         0.3620387474E+00      0.9158145601E+00
          0                 3           2             4    7     1      -0.4575152837E-03       4    7    1        -0.2534278079E-01      0.6410700923E-01
          0                 4           1             4    7     1       0.1820495786E-04       4    7    1         0.1036520913E-02      0.2621975587E-02

    ------------------------------------------------
       NWT REQUIRED            4 OUTER ITERATIONS 
       AND A TOTAL OF          7 INNER ITERATIONS.
    ------------------------------------------------

 NO OUTPUT CONTROL FOR STRESS PERIOD   21   TIME STEP   25
 
 SOLVING FOR HEAD 
                                                   Max.-Head-Change                         Max.-Flux-Residual
  Residual-Control   Outer-Iter.   Inner-Iter.     Column Row Layer    Maximum-Head-Change  Column Row Layer    Maximum-Flux-Residual          L2-NORM 
          0                 1           2             4    7     1      -0.6847219753E-01       4    7    1        -0.3588704528E+01      0.9118674499E+01
          0                 2           2             4    7     1       0.6660389028E-02       4    7    1         0.3588645113E+00      0.9118614793E+00
          0                 3           2             4    7     1      -0.4535486681E-03       4    7    1        -0.2512058286E-01      0.6383030013E-01
          0                 4           1             4    7     1       0.1804712218E-04       4    7    1         0.1027433009E-02      0.2610656419E-02

    ------------------------------------------------
       NWT REQUIRED            4 OUTER ITERATIONS 
       AND A TOTAL OF          7 INNER ITERATIONS.
    ------------------------------------------------

 NO OUTPUT CONTROL FOR STRESS PERIOD   21   TIME STEP   26
 
 SOLVING FOR HEAD 
                                                   Max.-Head-Change                         Max.-Flux-Residual
  Residual-Control   Outer-Iter.   Inner-Iter.     Column Row Layer    Maximum-Head-Change  Column Row Layer    Maximum-Flux-Residual          L2-NORM 
          0                 1           2             4    7     1      -0.6788505815E-01       4    7    1        -0.3557588464E+01      0.9079791059E+01
          0                 2           2             4    7     1       0.6603278367E-02       4    7    1         0.3557530396E+00      0.9079732896E+00
          0                 3           2             4    7     1      -0.4496596241E-03       4    7    1        -0.2490277847E-01      0.6355813451E-01
          0                 4           1             4    7     1       0.1789237342E-04       4    7    1         0.1018524799E-02      0.2599526953E-02

    ------------------------------------------------
       NWT REQUIRED            4 OUTER ITERATIONS 
       AND A TOTAL OF          7 INNER ITERATIONS.
    ------------------------------------------------

 NO OUTPUT CONTROL FOR STRESS PERIOD   21   TIME STEP   27
 
 SOLVING FOR HEAD 
                                                   Max.-Head-Change                         Max.-Flux-Residual
  Residual-Control   Outer-Iter.   Inner-Iter.     Column Row Layer    Maximum-Head-Change  Column Row Layer    Maximum-Flux-Residual          L2-NORM 
          0                 1           2             4    7     1      -0.6730925255E-01       4    7    1        -0.3527079667E+01      0.9041532521E+01
          0                 2           2             4    7     1       0.6547270109E-02       4    7    1         0.3527022902E+00      0.9041457942E+00
          0                 3           2             4    7     1      -0.4458456507E-03       4    7    1        -0.2468922469E-01      0.6329021138E-01
          0                 4           1             4    7     1       0.1774061245E-04       4    7    1         0.1009790455E-02      0.2588573703E-02

    ------------------------------------------------
       NWT REQUIRED            4 OUTER ITERATIONS 
       AND A TOTAL OF          7 INNER ITERATIONS.
    ------------------------------------------------

 NO OUTPUT CONTROL FOR STRESS PERIOD   21   TIME STEP   28
 
 SOLVING FOR HEAD 
                                                   Max.-Head-Change                         Max.-Flux-Residual
  Residual-Control   Outer-Iter.   Inner-Iter.     Column Row Layer    Maximum-Head-Change  Column Row Layer    Maximum-Flux-Residual          L2-NORM 
          0                 1           2             4    7     1      -0.6674441848E-01       4    7    1        -0.3497158551E+01      0.9003898274E+01
          0                 2           2             4    7     1       0.6492329021E-02       4    7    1         0.3497103047E+00      0.9003842808E+00
          0                 3           2             4    7     1      -0.4421043482E-03       4    7    1        -0.2447978443E-01      0.6302690797E-01
          0                 4           1             4    7     1       0.1759174279E-04       4    7    1         0.1001224341E-02      0.2577795081E-02

    ------------------------------------------------
       NWT REQUIRED            4 OUTER ITERATIONS 
       AND A TOTAL OF          7 INNER ITERATIONS.
    ------------------------------------------------

 NO OUTPUT CONTROL FOR STRESS PERIOD   21   TIME STEP   29
 
 SOLVING FOR HEAD 
                                                   Max.-Head-Change                         Max.-Flux-Residual
  Residual-Control   Outer-Iter.   Inner-Iter.     Column Row Layer    Maximum-Head-Change  Column Row Layer    Maximum-Flux-Residual          L2-NORM 
          0                 1           2             4    7     1      -0.6619033814E-01       4    7    1        -0.3467813533E+01      0.8966877410E+01
          0                 2           2             4    7     1       0.6438433917E-02       4    7    1         0.3467759250E+00      0.8966823240E+00
          0                 3           2             4    7     1      -0.4384342738E-03       4    7    1        -0.2427437660E-01      0.6276777839E-01
          0                 4           1             4    7     1       0.1744570688E-04       4    7    1         0.9928231548E-03      0.2567206814E-02

    ------------------------------------------------
       NWT REQUIRED            4 OUTER ITERATIONS 
       AND A TOTAL OF          7 INNER ITERATIONS.
    ------------------------------------------------

 NO OUTPUT CONTROL FOR STRESS PERIOD   21   TIME STEP   30



 STREAM LISTING     PERIOD     21   STEP       30

 LAYER ROW COL. STREAM  RCH.  FLOW INTO     FLOW TO   FLOW OUT OF   OVRLND.     DIRECT     STREAM       STREAM     STREAM     STREAM   STREAMBED  STREAMBED
                SEG.NO.  NO.  STRM. RCH.    AQUIFER    STRM. RCH.    RUNOFF     PRECIP       ET          HEAD       DEPTH      WIDTH   CONDCTNC.   GRADIENT

   1    1    1     1     1    1.3875E+01  1.7894E-01   1.3696E+01  0.000E+00  0.000E+00  0.000E+00  1.09404E+03  9.877E-01  9.972E+00  4.487E-02  1.329E+00
   1    2    2     1     2    1.3696E+01  2.7574E-01   1.3421E+01  0.000E+00  0.000E+00  0.000E+00  1.08904E+03  9.829E-01  9.890E+00  6.923E-02  1.328E+00
   1    3    3     1     3    1.3421E+01  2.3381E-01   1.3187E+01  0.000E+00  0.000E+00  0.000E+00  1.08340E+03  9.775E-01  9.797E+00  5.878E-02  1.326E+00
   1    3    4     1     4    1.3187E+01  2.1419E-01   1.2973E+01  0.000E+00  0.000E+00  0.000E+00  1.07838E+03  9.727E-01  9.715E+00  5.392E-02  1.324E+00
   1    4    5     2     1    1.0973E+01  2.9101E-01   1.0682E+01  0.000E+00  0.000E+00  0.000E+00  1.07266E+03  7.309E-01  1.200E+01  7.800E-02  1.244E+00
   1    5    6     2     2    1.0682E+01  2.2323E-01   1.0458E+01  0.000E+00  0.000E+00  0.000E+00  1.06723E+03  7.204E-01  1.200E+01  6.000E-02  1.240E+00
   1    6    6     2     3    1.0458E+01  2.2268E-01   1.0236E+01  0.000E+00  0.000E+00  0.000E+00  1.06250E+03  7.113E-01  1.200E+01  6.000E-02  1.237E+00
   1    7    6     2     4    1.0236E+01  2.2212E-01   1.0013E+01  0.000E+00  0.000E+00  0.000E+00  1.05778E+03  7.021E-01  1.200E+01  6.000E-02  1.234E+00
   1    8    6     2     5    1.0013E+01  2.2157E-01   9.7919E+00  0.000E+00  0.000E+00  0.000E+00  1.05305E+03  6.928E-01  1.200E+01  6.000E-02  1.231E+00
   1    3    5     3     1    2.0000E+00  2.8252E-01   1.7175E+00  0.000E+00  0.000E+00  0.000E+00  1.07555E+03  1.909E+00  9.636E+00  7.227E-02  1.955E+00
   1    3    6     3     2    1.7175E+00  2.4905E-01   1.4684E+00  0.000E+00  0.000E+00  0.000E+00  1.07264E+03  1.727E+00  8.909E+00  6.682E-02  1.864E+00
   1    3    7     3     3    1.4684E+00  1.9718E-01   1.2712E+00  0.000E+00  0.000E+00  0.000E+00  1.06987E+03  1.555E+00  8.218E+00  5.547E-02  1.777E+00
   1    4    8     3     4    1.2712E+00  2.2567E-01   1.0456E+00  0.000E+00  0.000E+00  0.000E+00  1.06682E+03  1.364E+00  7.455E+00  6.709E-02  1.682E+00
   1    5    8     3     5    1.0456E+00  1.5790E-01   8.8768E-01  0.000E+00  0.000E+00  0.000E+00  1.06362E+03  1.164E+00  6.655E+00  4.991E-02  1.582E+00
   1    6    8     3     6    8.8768E-01  5.5980E-02   8.3170E-01  0.000E+00  0.000E+00  0.000E+00  1.06158E+03  1.036E+00  6.145E+00  1.844E-02  1.518E+00
   1    5   10     4     1    1.0000E+01  9.0919E-02   9.9091E+00  0.000E+00  0.000E+00  0.000E+00  1.07836E+03  6.368E-01  1.000E+01  2.500E-02  1.212E+00
   1    5    9     4     2    9.9091E+00  1.8158E-01   9.7275E+00  0.000E+00  0.000E+00  0.000E+00  1.07154E+03  6.315E-01  1.000E+01  5.000E-02  1.211E+00
   1    6    8     4     3    9.7275E+00  1.2689E-01   9.6006E+00  0.000E+00  0.000E+00  0.000E+00  1.06381E+03  6.256E-01  1.000E+01  3.500E-02  1.209E+00
   1    6    8     5     1    1.0432E+01  2.2686E-01   1.0205E+01  0.000E+00  0.000E+00  0.000E+00  1.05868E+03  6.790E-01  1.542E+01  6.166E-02  1.226E+00
   1    7    7     5     2    1.0205E+01  2.7894E-01   9.9265E+00  0.000E+00  0.000E+00  0.000E+00  1.05417E+03  6.732E-01  1.519E+01  7.594E-02  1.224E+00
   1    8    7     5     3    9.9265E+00  1.9221E-01   9.7343E+00  0.000E+00  0.000E+00  0.000E+00  1.04992E+03  6.676E-01  1.497E+01  5.241E-02  1.223E+00
   1    8    6     5     4    9.7343E+00  1.3577E-01   9.5985E+00  0.000E+00  0.000E+00  0.000E+00  1.04691E+03  6.637E-01  1.482E+01  3.706E-02  1.221E+00
   1    9    6     6     1    1.9390E+01  2.4267E-01   1.9148E+01  0.000E+00  0.000E+00  0.000E+00  1.04377E+03  1.044E+00  1.200E+01  6.000E-02  1.348E+00
   1   10    7     6     2    1.9148E+01  2.4219E-01   1.8906E+01  0.000E+00  0.000E+00  0.000E+00  1.03922E+03  1.037E+00  1.200E+01  6.000E-02  1.346E+00
   1   11    7     6     3    1.8906E+01  2.4172E-01   1.8664E+01  0.000E+00  0.000E+00  0.000E+00  1.03466E+03  1.029E+00  1.200E+01  6.000E-02  1.343E+00
   1   12    7     6     4    1.8664E+01  2.4124E-01   1.8423E+01  0.000E+00  0.000E+00  0.000E+00  1.03011E+03  1.021E+00  1.200E+01  6.000E-02  1.340E+00
   1   13    7     6     5    1.8423E+01  5.3165E-03   1.8417E+01  0.000E+00  0.000E+00  0.000E+00  1.02693E+03  1.017E+00  1.200E+01  2.400E-02  7.384E-02
   1   14    9     7     1    1.5000E+02  1.3742E+00   1.4863E+02  0.000E+00  0.000E+00  0.000E+00  1.03987E+03  2.288E+00  5.529E+01  5.593E-01  8.190E-01
   1   13    8     7     2    1.4863E+02  1.9537E+00   1.4667E+02  0.000E+00  0.000E+00  0.000E+00  1.03478E+03  2.279E+00  5.525E+01  6.147E-01  1.059E+00
   1   13    7     7     3    1.4667E+02  1.6664E+00   1.4501E+02  0.000E+00  0.000E+00  0.000E+00  1.02969E+03  2.269E+00  5.521E+01  5.584E-01  9.948E-01
   1   13    6     8     1    1.6342E+02  1.0739E+00   1.6235E+02  0.000E+00  0.000E+00  0.000E+00  1.02478E+03  2.905E+00  4.213E+01  4.293E-01  8.339E-01
   1   13    5     8     2    1.6235E+02  3.1954E-01   1.6203E+02  0.000E+00  0.000E+00  0.000E+00  1.01853E+03  2.901E+00  4.206E+01  4.286E-01  2.485E-01
   1   13    4     8     3    1.6203E+02 -1.9488E+00   1.6398E+02  0.000E+00  0.000E+00  0.000E+00  1.01228E+03  2.906E+00  4.214E+01  4.294E+00 -1.513E-01
   1   13    3     8     4    1.6398E+02 -3.4149E+00   1.6739E+02  0.000E+00  0.000E+00  0.000E+00  1.00605E+03  2.924E+00  4.240E+01  4.320E+00 -2.635E-01
   1   13    2     8     5    1.6739E+02 -2.5312E+00   1.6992E+02  0.000E+00  0.000E+00  0.000E+00  9.99818E+02  2.943E+00  4.268E+01  4.349E+00 -1.940E-01
   1   13    1     8     6    1.6992E+02 -1.9830E+00   1.7191E+02  0.000E+00  0.000E+00  0.000E+00  9.94833E+02  2.958E+00  4.289E+01  2.623E+00 -2.520E-01
   1    8    6     9     1    0.0000E+00  0.0000E+00   0.0000E+00  0.000E+00  0.000E+00  0.000E+00  1.07875E+03  0.000E+00  4.000E+00  0.000E+00  1.000E+00
   1    8    5     9     2    0.0000E+00  0.0000E+00   0.0000E+00  0.000E+00  0.000E+00  0.000E+00  1.07825E+03  0.000E+00  4.000E+00  0.000E+00  1.000E+00





UNSATURATED ZONE PACKAGE VOLUMETRIC BUDGET FOR  TIME STEP    30 STRESS PERIOD   21
  ------------------------------------------------------------------------------



     CUMULATIVE VOLUMES      L**3       RATES FOR THIS TIME STEP      L**3/T
     ------------------                 ------------------------

           IN:                                      IN:
           ---                                      ---
        INFILTRATION =   822921838.4561          INFILTRATION =          49.5675

          OUT:                                     OUT:
          ----                                     ----
              UZF ET =   822176370.9119                UZF ET =          49.5675
        UZF RECHARGE =       73224.0000          UZF RECHARGE =       0.0000E+00

            IN - OUT =      672243.5441              IN - OUT =       0.0000E+00

          STORAGE:                                 STORAGE:
          --------                                 --------
      STORAGE CHANGE =      672243.4909        STORAGE CHANGE =      -3.3198E-16

 PERCENT DISCREPANCY IS DIFFERENCE BETWEEN IN-OUT MINUS CHANGE IN STORAGE
 DIVIDED BY THE AVERAGE OF IN AND OUT TIMES 100

 PERCENT DISCREPANCY =           0.00     PERCENT DISCREPANCY =           0.00






1
  VOLUMETRIC BUDGET FOR AGRICULTURAL FIELDS AT  END OF TIME STEP   30, STRESS PERIOD  21
  ------------------------------------------------------------------------------

     CUMULATIVE VOLUMES      L**3       RATES FOR THIS TIME STEP      L**3/T
     ------------------                 ------------------------

           IN:                                      IN:
           ---                                      ---
               AG WELLS  =   778268480.0000                 AG WELLS  =          48.7200
      DIVERSION SEGMENTS =           0.0000        DIVERSION SEGMENTS =           0.0000
       IRRIGATION PONDS  =           0.0000         IRRIGATION PONDS  =           0.0000
           GW IRRIGATION =           0.0000             GW IRRIGATION =           0.0000
           SW IRRIGATION =           0.0000             SW IRRIGATION =           0.0000
        SYSTEM LOSSES GW =           0.0000          SYSTEM LOSSES GW =           0.0000
        SYSTEM LOSSES SW =           0.0000          SYSTEM LOSSES SW =           0.0000

                TOTAL IN =   778268480.0000                  TOTAL IN =          48.7200

          OUT:                                     OUT:
          ----                                     ----
               AG WELLS  =           0.0000                 AG WELLS  =           0.0000
      DIVERSION SEGMENTS =           0.0000        DIVERSION SEGMENTS =           0.0000
       IRRIGATION PONDS  =           0.0000         IRRIGATION PONDS  =           0.0000
           GW IRRIGATION =   778268480.0000             GW IRRIGATION =          48.7200
           SW IRRIGATION =           0.0000             SW IRRIGATION =           0.0000
        SYSTEM LOSSES GW =           0.0000          SYSTEM LOSSES GW =           0.0000
        SYSTEM LOSSES SW =           0.0000          SYSTEM LOSSES SW =           0.0000

               TOTAL OUT =   778268480.0000                 TOTAL OUT =          48.7200

                IN - OUT =           0.0000                  IN - OUT =           0.0000

     PERCENT DISCREPANCY =           0.00         PERCENT DISCREPANCY =           0.00



1
  VOLUMETRIC BUDGET FOR ENTIRE MODEL AT END OF TIME STEP   30, STRESS PERIOD  21
  ------------------------------------------------------------------------------

     CUMULATIVE VOLUMES      L**3       RATES FOR THIS TIME STEP      L**3/T
     ------------------                 ------------------------

           IN:                                      IN:
           ---                                      ---
             STORAGE     =   914872960.0000               STORAGE     =          46.8801
       CONSTANT HEAD     =           0.0000         CONSTANT HEAD     =           0.0000
     HEAD DEP BOUNDS     =    15173802.0000       HEAD DEP BOUNDS     =           0.2884
      STREAM LEAKAGE     =   626731456.0000        STREAM LEAKAGE     =          11.8455
        UZF RECHARGE     =       73223.9531          UZF RECHARGE     =           0.0000
               GW ET     =           0.0000                 GW ET     =           0.0000
     SURFACE LEAKAGE     =           0.0000       SURFACE LEAKAGE     =           0.0000
           AG WELLS      =           0.0000             AG WELLS      =           0.0000

                TOTAL IN =  1556851456.0000                  TOTAL IN =          59.0140

          OUT:                                     OUT:
          ----                                     ----
             STORAGE     =   231098400.0000               STORAGE     =           0.1278
       CONSTANT HEAD     =           0.0000         CONSTANT HEAD     =           0.0000
     HEAD DEP BOUNDS     =    15234384.0000       HEAD DEP BOUNDS     =           0.2884
      STREAM LEAKAGE     =   532251680.0000        STREAM LEAKAGE     =           9.8780
        UZF RECHARGE     =           0.0000          UZF RECHARGE     =           0.0000
               GW ET     =           0.0000                 GW ET     =           0.0000
     SURFACE LEAKAGE     =           0.0000       SURFACE LEAKAGE     =           0.0000
           AG WELLS      =   778268480.0000             AG WELLS      =          48.7200

               TOTAL OUT =  1556852992.0000                 TOTAL OUT =          59.0141

                IN - OUT =       -1536.0000                  IN - OUT =      -1.7166E-04

     PERCENT DISCREPANCY =          -0.00         PERCENT DISCREPANCY =          -0.00






         TIME SUMMARY AT END OF TIME STEP   30 IN STRESS PERIOD   21
                    SECONDS     MINUTES      HOURS       DAYS        YEARS
                    -----------------------------------------------------------
   TIME STEP LENGTH  87667.      1461.1      24.352      1.0147     2.77799E-03
 STRESS PERIOD TIME 2.63000E+06  43833.      730.56      30.440     8.33397E-02
         TOTAL TIME 5.26866E+07 8.78110E+05  14635.      609.80      1.6695    
1
1
                            STRESS PERIOD NO.   22, LENGTH =   2630000.    
                            -----------------------------------------------

                              NUMBER OF TIME STEPS =    30

                               MULTIPLIER FOR DELT =     1.000

                            INITIAL TIME STEP SIZE =   87666.66    

 REUSING NON-PARAMETER GHB CELLS FROM LAST STRESS PERIOD

      2 GHB CELLS

 REUSING STREAM SEGMENT DATA FROM LAST STRESS PERIOD



            AREAL INFILTRATION RATE
 READING ON UNIT   19 WITH FORMAT: (FREE)              

            1           2           3           4           5           6           7           8           9          10
 ........................................................................................................................
   1   1.0000E-10  2.0000E-10   0.000       0.000       0.000       0.000       0.000       0.000       0.000       0.000    
   2   2.0000E-10  1.0000E-10  2.0000E-10   0.000       0.000      8.0000E-10  8.0000E-10  5.0000E-10   0.000       0.000    
   3    0.000      5.0000E-10  1.0000E-10  1.0000E-10  8.0000E-10  8.0000E-10  5.0000E-10  5.0000E-10   0.000       0.000    
   4   8.0000E-10  5.0000E-10  1.0000E-10  1.0000E-10  1.0000E-10  1.0000E-10  1.0000E-10  1.0000E-10  2.0000E-10   0.000    
   5   8.0000E-10  5.0000E-10  1.0000E-10  1.0000E-10  1.0000E-10  1.0000E-10  1.0000E-10  1.0000E-10  1.0000E-10  1.0000E-10
   6   8.0000E-10  5.0000E-10  5.0000E-10  2.0000E-10  2.0000E-10  1.0000E-10  1.0000E-10  1.0000E-10  1.0000E-10  5.0000E-10
   7   8.0000E-10  5.0000E-10  5.0000E-10  2.0000E-10  2.0000E-10  1.0000E-10  1.0000E-10  2.0000E-10  2.0000E-10   0.000    
   8    0.000      5.0000E-10  5.0000E-10  2.0000E-10  2.0000E-10  1.0000E-10  1.0000E-10  2.0000E-10  5.0000E-10   0.000    
   9    0.000      5.0000E-10  5.0000E-10  2.0000E-10  2.0000E-10  1.0000E-10  1.0000E-10  2.0000E-10  5.0000E-10   0.000    
  10    0.000      5.0000E-10  5.0000E-10  2.0000E-10  2.0000E-10  1.0000E-10  1.0000E-10  2.0000E-10  5.0000E-10  8.0000E-10
  11    0.000      1.0000E-10  1.0000E-10  1.0000E-10  1.0000E-10  1.0000E-10  1.0000E-10  2.0000E-10  5.0000E-10   0.000    
  12   1.0000E-10  1.0000E-10  1.0000E-10  1.0000E-10  1.0000E-10  1.0000E-10  1.0000E-10  1.0000E-10  2.0000E-10   0.000    
  13   1.0000E-10  1.0000E-10  2.0000E-10  2.0000E-10  2.0000E-10  2.0000E-10  2.0000E-10  1.0000E-10  1.0000E-10   0.000    
  14    0.000      2.0000E-10  5.0000E-10  5.0000E-10  5.0000E-10  5.0000E-10  5.0000E-10  2.0000E-10  1.0000E-10   0.000    
  15    0.000       0.000      8.0000E-10  8.0000E-10  8.0000E-10  8.0000E-10   0.000       0.000       0.000       0.000    

                  ET RATE =  7.500000E-08

 USING ET EXTINCTION DEPTH FROM PREVIOUS STRESS PERIOD. CURRENT PERIOD IS:      22

 USING EXTINCTION WATER CONTENT FROM PREVIOUS STRESS PERIOD. CURRENT PERIOD IS:      22

 USING AIR ENTRY PRESSURE FROM PREVIOUS STRESS PERIOD. CURRENT PERIOD IS:      22

 USING ROOT PRESSURE HEAD FROM PREVIOUS STRESS PERIOD. CURRENT PERIOD IS:      22

 USING ROOT ACTIVITY FROM PREVIOUS STRESS PERIOD. CURRENT PERIOD IS:      22

 PROCESSING AG STRESS PERIOD DATA

 READING AG STRESS PERIOD DATA

 READING IRRIGATION SEGMENT

 READING IRRIGATION WELL

 READING SUPPLEMENTAL WELL

 NO IRRPOND OR REUSING IRRPOND DATA FROM LAST STRESS PERIOD

 END PROCESSING AG STRESS PERIOD DATA OPTIONS
 
 SOLVING FOR HEAD 
                                                   Max.-Head-Change                         Max.-Flux-Residual
  Residual-Control   Outer-Iter.   Inner-Iter.     Column Row Layer    Maximum-Head-Change  Column Row Layer    Maximum-Flux-Residual          L2-NORM 
          0                 1           2             5    8     1       0.7005634168E-01       5    8    1         0.3814189663E+01      0.1006884746E+02
          0                 2           2             5    8     1      -0.6814461405E-02       5    8    1        -0.3814112694E+00      0.1006852572E+01
          0                 3           2             5    8     1       0.4640406799E-03       5    8    1         0.2669887548E-01      0.7047907720E-01
          0                 4           1             5    8     1      -0.1846460790E-04       5    8    1        -0.1091985183E-02      0.2882550001E-02

    ------------------------------------------------
       NWT REQUIRED            4 OUTER ITERATIONS 
       AND A TOTAL OF          7 INNER ITERATIONS.
    ------------------------------------------------

 NO OUTPUT CONTROL FOR STRESS PERIOD   22   TIME STEP    1
 
 SOLVING FOR HEAD 
                                                   Max.-Head-Change                         Max.-Flux-Residual
  Residual-Control   Outer-Iter.   Inner-Iter.     Column Row Layer    Maximum-Head-Change  Column Row Layer    Maximum-Flux-Residual          L2-NORM 
          0                 1           2             5    8     1       0.6691906863E-01       5    8    1         0.3640474474E+01      0.9751531826E+01
          0                 2           2             5    8     1      -0.6509297831E-02       5    8    1        -0.3640402737E+00      0.9751215752E+00
          0                 3           2             5    8     1       0.4432600982E-03       5    8    1         0.2548290030E-01      0.6825776856E-01
          0                 4           1             5    8     1      -0.1763772970E-04       5    8    1        -0.1042251761E-02      0.2791690471E-02

    ------------------------------------------------
       NWT REQUIRED            4 OUTER ITERATIONS 
       AND A TOTAL OF          7 INNER ITERATIONS.
    ------------------------------------------------

 NO OUTPUT CONTROL FOR STRESS PERIOD   22   TIME STEP    2
 
 SOLVING FOR HEAD 
                                                   Max.-Head-Change                         Max.-Flux-Residual
  Residual-Control   Outer-Iter.   Inner-Iter.     Column Row Layer    Maximum-Head-Change  Column Row Layer    Maximum-Flux-Residual          L2-NORM 
          0                 1           2             5    8     1       0.6397297200E-01       5    8    1         0.3477437471E+01      0.9448919180E+01
          0                 2           2             5    8     1      -0.6222730071E-02       5    8    1        -0.3477370661E+00      0.9448634074E+00
          0                 3           2             5    8     1       0.4237458263E-03       5    8    1         0.2434167061E-01      0.6613974778E-01
          0                 4           1             5    8     1      -0.1686123905E-04       5    8    1        -0.9955754122E-03      0.2705064356E-02

    ------------------------------------------------
       NWT REQUIRED            4 OUTER ITERATIONS 
       AND A TOTAL OF          7 INNER ITERATIONS.
    ------------------------------------------------

 NO OUTPUT CONTROL FOR STRESS PERIOD   22   TIME STEP    3
 
 SOLVING FOR HEAD 
                                                   Max.-Head-Change                         Max.-Flux-Residual
  Residual-Control   Outer-Iter.   Inner-Iter.     Column Row Layer    Maximum-Head-Change  Column Row Layer    Maximum-Flux-Residual          L2-NORM 
          0                 1           2             5    8     1       0.6120465068E-01       5    8    1         0.3324351493E+01      0.9162438291E+01
          0                 2           2             5    8     1      -0.5953454468E-02       5    8    1        -0.3324289242E+00      0.9162180673E+00
          0                 3           2             5    8     1       0.4054090916E-03       5    8    1         0.2327009590E-01      0.6413464097E-01
          0                 4           1             5    8     1      -0.1613160338E-04       5    8    1        -0.9517479582E-03      0.2623066446E-02

    ------------------------------------------------
       NWT REQUIRED            4 OUTER ITERATIONS 
       AND A TOTAL OF          7 INNER ITERATIONS.
    ------------------------------------------------

 NO OUTPUT CONTROL FOR STRESS PERIOD   22   TIME STEP    4
 
 SOLVING FOR HEAD 
                                                   Max.-Head-Change                         Max.-Flux-Residual
  Residual-Control   Outer-Iter.   Inner-Iter.     Column Row Layer    Maximum-Head-Change  Column Row Layer    Maximum-Flux-Residual          L2-NORM 
          0                 1           2             5    8     1       0.5860138325E-01       5    8    1         0.3180498458E+01      0.8890922126E+01
          0                 2           2             5    8     1      -0.5700233620E-02       5    8    1        -0.3180440427E+00      0.8890689752E+00
          0                 3           2             5    8     1       0.3881656317E-03       5    8    1         0.2226314978E-01      0.6223428325E-01
          0                 4           1             5    8     1      -0.1544547028E-04       5    8    1        -0.9105638414E-03      0.2545353629E-02

    ------------------------------------------------
       NWT REQUIRED            4 OUTER ITERATIONS 
       AND A TOTAL OF          7 INNER ITERATIONS.
    ------------------------------------------------

 NO OUTPUT CONTROL FOR STRESS PERIOD   22   TIME STEP    5
 
 SOLVING FOR HEAD 
                                                   Max.-Head-Change                         Max.-Flux-Residual
  Residual-Control   Outer-Iter.   Inner-Iter.     Column Row Layer    Maximum-Head-Change  Column Row Layer    Maximum-Flux-Residual          L2-NORM 
          0                 1           2             5    7     1       0.5642532373E-01       5    6    1         0.3045357383E+01      0.8633319665E+01
          0                 2           2             5    7     1      -0.5488602538E-02       5    6    1        -0.3045300508E+00      0.8633076366E+00
          0                 3           2             5    7     1       0.3737539471E-03       5    6    1         0.2131716884E-01      0.6042907293E-01
          0                 4           1             5    7     1      -0.1487201924E-04       5    6    1        -0.8718731717E-03      0.2471540599E-02

    ------------------------------------------------
       NWT REQUIRED            4 OUTER ITERATIONS 
       AND A TOTAL OF          7 INNER ITERATIONS.
    ------------------------------------------------

 NO OUTPUT CONTROL FOR STRESS PERIOD   22   TIME STEP    6
 
 SOLVING FOR HEAD 
                                                   Max.-Head-Change                         Max.-Flux-Residual
  Residual-Control   Outer-Iter.   Inner-Iter.     Column Row Layer    Maximum-Head-Change  Column Row Layer    Maximum-Flux-Residual          L2-NORM 
          0                 1           2             5    7     1       0.5516149015E-01       5    7    1         0.2932420152E+01      0.8388646830E+01
          0                 2           2             5    7     1      -0.5365672425E-02       5    7    1        -0.2932395479E+00      0.8388456904E+00
          0                 3           2             5    7     1       0.3653827992E-03       5    7    1         0.2052680282E-01      0.5871874100E-01
          0                 4           1             5    7     1      -0.1453892378E-04       5    7    1        -0.8395472930E-03      0.2401549368E-02

    ------------------------------------------------
       NWT REQUIRED            4 OUTER ITERATIONS 
       AND A TOTAL OF          7 INNER ITERATIONS.
    ------------------------------------------------

 NO OUTPUT CONTROL FOR STRESS PERIOD   22   TIME STEP    7
 
 SOLVING FOR HEAD 
                                                   Max.-Head-Change                         Max.-Flux-Residual
  Residual-Control   Outer-Iter.   Inner-Iter.     Column Row Layer    Maximum-Head-Change  Column Row Layer    Maximum-Flux-Residual          L2-NORM 
          0                 1           2             5    7     1       0.5392213609E-01       5    7    1         0.2866745836E+01      0.8156034820E+01
          0                 2           2             5    7     1      -0.5245122702E-02       5    7    1        -0.2866724967E+00      0.8155863169E+00
          0                 3           2             5    7     1       0.3571737550E-03       5    7    1         0.2006710544E-01      0.5709061985E-01
          0                 4           1             5    7     1      -0.1421227846E-04       5    7    1        -0.8207456519E-03      0.2334982220E-02

    ------------------------------------------------
       NWT REQUIRED            4 OUTER ITERATIONS 
       AND A TOTAL OF          7 INNER ITERATIONS.
    ------------------------------------------------

 NO OUTPUT CONTROL FOR STRESS PERIOD   22   TIME STEP    8
 
 SOLVING FOR HEAD 
                                                   Max.-Head-Change                         Max.-Flux-Residual
  Residual-Control   Outer-Iter.   Inner-Iter.     Column Row Layer    Maximum-Head-Change  Column Row Layer    Maximum-Flux-Residual          L2-NORM 
          0                 1           2             5    7     1       0.5270776793E-01       5    7    1         0.2802332660E+01      0.7934648186E+01
          0                 2           2             5    7     1      -0.5127002728E-02       5    7    1        -0.2802315119E+00      0.7934492852E+00
          0                 3           2             5    7     1       0.3491301743E-03       5    7    1         0.1961623316E-01      0.5554107761E-01
          0                 4           1             5    7     1      -0.1389221717E-04       5    7    1        -0.8023049659E-03      0.2271606481E-02

    ------------------------------------------------
       NWT REQUIRED            4 OUTER ITERATIONS 
       AND A TOTAL OF          7 INNER ITERATIONS.
    ------------------------------------------------

 NO OUTPUT CONTROL FOR STRESS PERIOD   22   TIME STEP    9
 
 SOLVING FOR HEAD 
                                                   Max.-Head-Change                         Max.-Flux-Residual
  Residual-Control   Outer-Iter.   Inner-Iter.     Column Row Layer    Maximum-Head-Change  Column Row Layer    Maximum-Flux-Residual          L2-NORM 
          0                 1           2             4    7     1       0.5173722906E-01       5    7    1         0.2739223078E+01      0.7723725519E+01
          0                 2           2             4    7     1      -0.5032615979E-02       5    7    1        -0.2739208452E+00      0.7723585023E+00
          0                 3           2             4    7     1       0.3427025894E-03       5    7    1         0.1917448353E-01      0.5406475070E-01
          0                 4           1             4    7     1      -0.1363645625E-04       5    7    1        -0.7842374018E-03      0.2211214245E-02

    ------------------------------------------------
       NWT REQUIRED            4 OUTER ITERATIONS 
       AND A TOTAL OF          7 INNER ITERATIONS.
    ------------------------------------------------

 NO OUTPUT CONTROL FOR STRESS PERIOD   22   TIME STEP   10
 
 SOLVING FOR HEAD 
                                                   Max.-Head-Change                         Max.-Flux-Residual
  Residual-Control   Outer-Iter.   Inner-Iter.     Column Row Layer    Maximum-Head-Change  Column Row Layer    Maximum-Flux-Residual          L2-NORM 
          0                 1           2             4    7     1       0.5129404736E-01       4    7    1         0.2688097221E+01      0.7522594042E+01
          0                 2           2             4    7     1      -0.4989510659E-02       4    7    1        -0.2688096534E+00      0.7522466676E+00
          0                 3           2             4    7     1       0.3397672363E-03       4    7    1         0.1881668678E-01      0.5265693487E-01
          0                 4           1             4    7     1      -0.1351965608E-04       4    7    1        -0.7696035539E-03      0.2153618981E-02

    ------------------------------------------------
       NWT REQUIRED            4 OUTER ITERATIONS 
       AND A TOTAL OF          7 INNER ITERATIONS.
    ------------------------------------------------

 NO OUTPUT CONTROL FOR STRESS PERIOD   22   TIME STEP   11
 
 SOLVING FOR HEAD 
                                                   Max.-Head-Change                         Max.-Flux-Residual
  Residual-Control   Outer-Iter.   Inner-Iter.     Column Row Layer    Maximum-Head-Change  Column Row Layer    Maximum-Flux-Residual          L2-NORM 
          0                 1           2             4    7     1       0.5082548778E-01       4    7    1         0.2665068504E+01      0.7330610664E+01
          0                 2           2             4    7     1      -0.4943936299E-02       4    7    1        -0.2665070267E+00      0.7330495385E+00
          0                 3           2             4    7     1       0.3366637552E-03       4    7    1         0.1865550053E-01      0.5131317198E-01
          0                 4           1             4    7     1      -0.1339616561E-04       4    7    1        -0.7630110399E-03      0.2098669627E-02

    ------------------------------------------------
       NWT REQUIRED            4 OUTER ITERATIONS 
       AND A TOTAL OF          7 INNER ITERATIONS.
    ------------------------------------------------

 NO OUTPUT CONTROL FOR STRESS PERIOD   22   TIME STEP   12
 
 SOLVING FOR HEAD 
                                                   Max.-Head-Change                         Max.-Flux-Residual
  Residual-Control   Outer-Iter.   Inner-Iter.     Column Row Layer    Maximum-Head-Change  Column Row Layer    Maximum-Flux-Residual          L2-NORM 
          0                 1           2             4    7     1       0.5033411140E-01       4    7    1         0.2640723969E+01      0.7147175769E+01
          0                 2           2             4    7     1      -0.4896142066E-02       4    7    1        -0.2640727904E+00      0.7147071217E+00
          0                 3           2             4    7     1       0.3334091124E-03       4    7    1         0.1848510185E-01      0.5002922561E-01
          0                 4           1             4    7     1      -0.1326666018E-04       4    7    1        -0.7560417159E-03      0.2046174177E-02

    ------------------------------------------------
       NWT REQUIRED            4 OUTER ITERATIONS 
       AND A TOTAL OF          7 INNER ITERATIONS.
    ------------------------------------------------

 NO OUTPUT CONTROL FOR STRESS PERIOD   22   TIME STEP   13
 
 SOLVING FOR HEAD 
                                                   Max.-Head-Change                         Max.-Flux-Residual
  Residual-Control   Outer-Iter.   Inner-Iter.     Column Row Layer    Maximum-Head-Change  Column Row Layer    Maximum-Flux-Residual          L2-NORM 
          0                 1           2             4    7     1       0.4982231779E-01       4    7    1         0.2615196403E+01      0.6971753789E+01
          0                 2           2             4    7     1      -0.4846361410E-02       4    7    1        -0.2615202257E+00      0.6971658891E+00
          0                 3           2             4    7     1       0.3300192063E-03       4    7    1         0.1830642044E-01      0.4880137267E-01
          0                 4           1             4    7     1      -0.1313177323E-04       4    7    1        -0.7487336622E-03      0.1995959667E-02

    ------------------------------------------------
       NWT REQUIRED            4 OUTER ITERATIONS 
       AND A TOTAL OF          7 INNER ITERATIONS.
    ------------------------------------------------

 NO OUTPUT CONTROL FOR STRESS PERIOD   22   TIME STEP   14
 
 SOLVING FOR HEAD 
                                                   Max.-Head-Change                         Max.-Flux-Residual
  Residual-Control   Outer-Iter.   Inner-Iter.     Column Row Layer    Maximum-Head-Change  Column Row Layer    Maximum-Flux-Residual          L2-NORM 
          0                 1           2             4    7     1       0.4929223129E-01       4    7    1         0.2588603011E+01      0.6803850033E+01
          0                 2           2             4    7     1      -0.4794801008E-02       4    7    1        -0.2588610552E+00      0.6803763920E+00
          0                 3           2             4    7     1       0.3265081089E-03       4    7    1         0.1812027682E-01      0.4762611297E-01
          0                 4           1             4    7     1      -0.1299206336E-04       4    7    1        -0.7411203756E-03      0.1947894762E-02

    ------------------------------------------------
       NWT REQUIRED            4 OUTER ITERATIONS 
       AND A TOTAL OF          7 INNER ITERATIONS.
    ------------------------------------------------

 NO OUTPUT CONTROL FOR STRESS PERIOD   22   TIME STEP   15
 
 SOLVING FOR HEAD 
                                                   Max.-Head-Change                         Max.-Flux-Residual
  Residual-Control   Outer-Iter.   Inner-Iter.     Column Row Layer    Maximum-Head-Change  Column Row Layer    Maximum-Flux-Residual          L2-NORM 
          0                 1           2             4    7     1       0.4874595800E-01       4    7    1         0.2561061144E+01      0.6642990038E+01
          0                 2           2             4    7     1      -0.4741665757E-02       4    7    1        -0.2561070164E+00      0.6642911667E+00
          0                 3           2             4    7     1       0.3228897733E-03       4    7    1         0.1792749261E-01      0.4650016647E-01
          0                 4           1             4    7     1      -0.1284808651E-04       4    7    1        -0.7332355065E-03      0.1901828737E-02

    ------------------------------------------------
       NWT REQUIRED            4 OUTER ITERATIONS 
       AND A TOTAL OF          7 INNER ITERATIONS.
    ------------------------------------------------

 NO OUTPUT CONTROL FOR STRESS PERIOD   22   TIME STEP   16
 
 SOLVING FOR HEAD 
                                                   Max.-Head-Change                         Max.-Flux-Residual
  Residual-Control   Outer-Iter.   Inner-Iter.     Column Row Layer    Maximum-Head-Change  Column Row Layer    Maximum-Flux-Residual          L2-NORM 
          0                 1           2             4    7     1       0.4818547549E-01       4    7    1         0.2532680002E+01      0.6488760739E+01
          0                 2           2             4    7     1      -0.4687148051E-02       4    7    1        -0.2532690310E+00      0.6488689632E+00
          0                 3           2             4    7     1       0.3191773005E-03       4    7    1         0.1772883232E-01      0.4542062683E-01
          0                 4           1             4    7     1      -0.1270036409E-04       4    7    1        -0.7251103013E-03      0.1857681834E-02

    ------------------------------------------------
       NWT REQUIRED            4 OUTER ITERATIONS 
       AND A TOTAL OF          7 INNER ITERATIONS.
    ------------------------------------------------

 NO OUTPUT CONTROL FOR STRESS PERIOD   22   TIME STEP   17
 
 SOLVING FOR HEAD 
                                                   Max.-Head-Change                         Max.-Flux-Residual
  Residual-Control   Outer-Iter.   Inner-Iter.     Column Row Layer    Maximum-Head-Change  Column Row Layer    Maximum-Flux-Residual          L2-NORM 
          0                 1           2             4    7     1       0.4761261949E-01       4    7    1         0.2503562117E+01      0.6340754309E+01
          0                 2           2             4    7     1      -0.4631426485E-02       4    7    1        -0.2503573543E+00      0.6340689302E+00
          0                 3           2             4    7     1       0.3153828517E-03       4    7    1         0.1752501381E-01      0.4438463624E-01
          0                 4           1             4    7     1      -0.1254937920E-04       4    7    1        -0.7167741121E-03      0.1815317904E-02

    ------------------------------------------------
       NWT REQUIRED            4 OUTER ITERATIONS 
       AND A TOTAL OF          7 INNER ITERATIONS.
    ------------------------------------------------

 NO OUTPUT CONTROL FOR STRESS PERIOD   22   TIME STEP   18
 
 SOLVING FOR HEAD 
                                                   Max.-Head-Change                         Max.-Flux-Residual
  Residual-Control   Outer-Iter.   Inner-Iter.     Column Row Layer    Maximum-Head-Change  Column Row Layer    Maximum-Flux-Residual          L2-NORM 
          0                 1           2             4    7     1       0.4702897370E-01       4    7    1         0.2473795456E+01      0.6198609020E+01
          0                 2           2             4    7     1      -0.4574655134E-02       4    7    1        -0.2473807845E+00      0.6198550102E+00
          0                 3           2             4    7     1       0.3115169186E-03       4    7    1         0.1731665292E-01      0.4338968576E-01
          0                 4           1             4    7     1      -0.1239555019E-04       4    7    1        -0.7082521329E-03      0.1774627847E-02

    ------------------------------------------------
       NWT REQUIRED            4 OUTER ITERATIONS 
       AND A TOTAL OF          7 INNER ITERATIONS.
    ------------------------------------------------

 NO OUTPUT CONTROL FOR STRESS PERIOD   22   TIME STEP   19
 
 SOLVING FOR HEAD 
                                                   Max.-Head-Change                         Max.-Flux-Residual
  Residual-Control   Outer-Iter.   Inner-Iter.     Column Row Layer    Maximum-Head-Change  Column Row Layer    Maximum-Flux-Residual          L2-NORM 
          0                 1           2             4    7     1       0.4643614369E-01       4    7    1         0.2443469345E+01      0.6061993338E+01
          0                 2           2             4    7     1      -0.4516990198E-02       4    7    1        -0.2443482556E+00      0.6061939459E+00
          0                 3           2             4    7     1       0.3075901378E-03       4    7    1         0.1710437503E-01      0.4243340618E-01
          0                 4           1             4    7     1      -0.1223929958E-04       4    7    1        -0.6995699505E-03      0.1735507518E-02

    ------------------------------------------------
       NWT REQUIRED            4 OUTER ITERATIONS 
       AND A TOTAL OF          7 INNER ITERATIONS.
    ------------------------------------------------

 NO OUTPUT CONTROL FOR STRESS PERIOD   22   TIME STEP   20
 
 SOLVING FOR HEAD 
                                                   Max.-Head-Change                         Max.-Flux-Residual
  Residual-Control   Outer-Iter.   Inner-Iter.     Column Row Layer    Maximum-Head-Change  Column Row Layer    Maximum-Flux-Residual          L2-NORM 
          0                 1           2             4    7     1       0.4583575191E-01       4    7    1         0.2412674245E+01      0.5930581475E+01
          0                 2           2             4    7     1      -0.4458589518E-02       4    7    1        -0.2412688153E+00      0.5930532158E+00
          0                 3           2             4    7     1       0.3036132577E-03       4    7    1         0.1688881346E-01      0.4151356651E-01
          0                 4           1             4    7     1      -0.1208105612E-04       4    7    1        -0.6907534771E-03      0.1697893837E-02

    ------------------------------------------------
       NWT REQUIRED            4 OUTER ITERATIONS 
       AND A TOTAL OF          7 INNER ITERATIONS.
    ------------------------------------------------

 NO OUTPUT CONTROL FOR STRESS PERIOD   22   TIME STEP   21
 
 SOLVING FOR HEAD 
                                                   Max.-Head-Change                         Max.-Flux-Residual
  Residual-Control   Outer-Iter.   Inner-Iter.     Column Row Layer    Maximum-Head-Change  Column Row Layer    Maximum-Flux-Residual          L2-NORM 
          0                 1           2             4    7     1       0.4522904252E-01       4    7    1         0.2381479847E+01      0.5804084024E+01
          0                 2           2             4    7     1      -0.4399574137E-02       4    7    1        -0.2381494339E+00      0.5804039043E+00
          0                 3           2             4    7     1       0.2995945207E-03       4    7    1         0.1667045613E-01      0.4062812888E-01
          0                 4           1             4    7     1      -0.1192114688E-04       4    7    1        -0.6818226623E-03      0.1661688555E-02

    ------------------------------------------------
       NWT REQUIRED            4 OUTER ITERATIONS 
       AND A TOTAL OF          7 INNER ITERATIONS.
    ------------------------------------------------

 NO OUTPUT CONTROL FOR STRESS PERIOD   22   TIME STEP   22
 
 SOLVING FOR HEAD 
                                                   Max.-Head-Change                         Max.-Flux-Residual
  Residual-Control   Outer-Iter.   Inner-Iter.     Column Row Layer    Maximum-Head-Change  Column Row Layer    Maximum-Flux-Residual          L2-NORM 
          0                 1           2             4    7     1       0.4461716851E-01       4    7    1         0.2349950658E+01      0.5682236348E+01
          0                 2           2             4    7     1      -0.4340056225E-02       4    7    1        -0.2349965631E+00      0.5682195341E+00
          0                 3           2             4    7     1       0.2955415640E-03       4    7    1         0.1644975462E-01      0.3977525707E-01
          0                 4           1             4    7     1      -0.1175987602E-04       4    7    1        -0.6727959546E-03      0.1626809683E-02

    ------------------------------------------------
       NWT REQUIRED            4 OUTER ITERATIONS 
       AND A TOTAL OF          7 INNER ITERATIONS.
    ------------------------------------------------

 NO OUTPUT CONTROL FOR STRESS PERIOD   22   TIME STEP   23
 
 SOLVING FOR HEAD 
                                                   Max.-Head-Change                         Max.-Flux-Residual
  Residual-Control   Outer-Iter.   Inner-Iter.     Column Row Layer    Maximum-Head-Change  Column Row Layer    Maximum-Flux-Residual          L2-NORM 
          0                 1           2             4    7     1       0.4400159169E-01       4    7    1         0.2318168111E+01      0.5564779961E+01
          0                 2           2             4    7     1      -0.4280177993E-02       4    7    1        -0.2318183473E+00      0.5564742195E+00
          0                 3           2             4    7     1       0.2914640723E-03       4    7    1         0.1622727902E-01      0.3895305917E-01
          0                 4           1             4    7     1      -0.1159762911E-04       4    7    1        -0.6636967107E-03      0.1593166753E-02

    ------------------------------------------------
       NWT REQUIRED            4 OUTER ITERATIONS 
       AND A TOTAL OF          7 INNER ITERATIONS.
    ------------------------------------------------

 NO OUTPUT CONTROL FOR STRESS PERIOD   22   TIME STEP   24
 
 SOLVING FOR HEAD 
                                                   Max.-Head-Change                         Max.-Flux-Residual
  Residual-Control   Outer-Iter.   Inner-Iter.     Column Row Layer    Maximum-Head-Change  Column Row Layer    Maximum-Flux-Residual          L2-NORM 
          0                 1           2             4    7     1       0.4338313927E-01       4    7    1         0.2286179127E+01      0.5451484891E+01
          0                 2           2             4    7     1      -0.4220019921E-02       4    7    1        -0.2286194797E+00      0.5451450253E+00
          0                 3           2             4    7     1       0.2873675264E-03       4    7    1         0.1600335793E-01      0.3816003362E-01
          0                 4           1             4    7     1      -0.1143462363E-04       4    7    1        -0.6545383135E-03      0.1560740568E-02

    ------------------------------------------------
       NWT REQUIRED            4 OUTER ITERATIONS 
       AND A TOTAL OF          7 INNER ITERATIONS.
    ------------------------------------------------

 NO OUTPUT CONTROL FOR STRESS PERIOD   22   TIME STEP   25
 
 SOLVING FOR HEAD 
                                                   Max.-Head-Change                         Max.-Flux-Residual
  Residual-Control   Outer-Iter.   Inner-Iter.     Column Row Layer    Maximum-Head-Change  Column Row Layer    Maximum-Flux-Residual          L2-NORM 
          0                 1           2             4    7     1       0.4276296741E-01       4    7    1         0.2254048251E+01      0.5342134701E+01
          0                 2           2             4    7     1      -0.4159694483E-02       4    7    1        -0.2254064155E+00      0.5342102972E+00
          0                 3           2             4    7     1       0.2832595839E-03       4    7    1         0.1577844313E-01      0.3739459556E-01
          0                 4           1             4    7     1      -0.1127116488E-04       4    7    1        -0.6453392762E-03      0.1529431036E-02

    ------------------------------------------------
       NWT REQUIRED            4 OUTER ITERATIONS 
       AND A TOTAL OF          7 INNER ITERATIONS.
    ------------------------------------------------

 NO OUTPUT CONTROL FOR STRESS PERIOD   22   TIME STEP   26
 
 SOLVING FOR HEAD 
                                                   Max.-Head-Change                         Max.-Flux-Residual
  Residual-Control   Outer-Iter.   Inner-Iter.     Column Row Layer    Maximum-Head-Change  Column Row Layer    Maximum-Flux-Residual          L2-NORM 
          0                 1           2             4    7     1       0.4214201169E-01       4    7    1         0.2221828211E+01      0.5236521831E+01
          0                 2           2             4    7     1      -0.4099292698E-02       4    7    1        -0.2221844283E+00      0.5236492530E+00
          0                 3           2             4    7     1       0.2791464435E-03       4    7    1         0.1555290375E-01      0.3665533631E-01
          0                 4           1             4    7     1      -0.1110749903E-04       4    7    1        -0.6361147184E-03      0.1499192941E-02

    ------------------------------------------------
       NWT REQUIRED            4 OUTER ITERATIONS 
       AND A TOTAL OF          7 INNER ITERATIONS.
    ------------------------------------------------

 NO OUTPUT CONTROL FOR STRESS PERIOD   22   TIME STEP   27
 
 SOLVING FOR HEAD 
                                                   Max.-Head-Change                         Max.-Flux-Residual
  Residual-Control   Outer-Iter.   Inner-Iter.     Column Row Layer    Maximum-Head-Change  Column Row Layer    Maximum-Flux-Residual          L2-NORM 
          0                 1           2             4    7     1       0.4152113356E-01       4    7    1         0.2189567514E+01      0.5134462038E+01
          0                 2           2             4    7     1      -0.4038898373E-02       4    7    1        -0.2189583696E+00      0.5134435233E+00
          0                 3           2             4    7     1       0.2750338119E-03       4    7    1         0.1532707944E-01      0.3594096339E-01
          0                 4           1             4    7     1      -0.1094385332E-04       4    7    1        -0.6268784784E-03      0.1469985317E-02

    ------------------------------------------------
       NWT REQUIRED            4 OUTER ITERATIONS 
       AND A TOTAL OF          7 INNER ITERATIONS.
    ------------------------------------------------

 NO OUTPUT CONTROL FOR STRESS PERIOD   22   TIME STEP   28
 
 SOLVING FOR HEAD 
                                                   Max.-Head-Change                         Max.-Flux-Residual
  Residual-Control   Outer-Iter.   Inner-Iter.     Column Row Layer    Maximum-Head-Change  Column Row Layer    Maximum-Flux-Residual          L2-NORM 
          0                 1           2             4    7     1       0.4090099345E-01       4    7    1         0.2157303606E+01      0.5035772315E+01
          0                 2           2             4    7     1      -0.3978575758E-02       4    7    1        -0.2157319846E+00      0.5035747274E+00
          0                 3           2             4    7     1       0.2709260645E-03       4    7    1         0.1510123233E-01      0.3525012486E-01
          0                 4           1             4    7     1      -0.1078040252E-04       4    7    1        -0.6176413267E-03      0.1441724656E-02

    ------------------------------------------------
       NWT REQUIRED            4 OUTER ITERATIONS 
       AND A TOTAL OF          7 INNER ITERATIONS.
    ------------------------------------------------

 NO OUTPUT CONTROL FOR STRESS PERIOD   22   TIME STEP   29
 
 SOLVING FOR HEAD 
                                                   Max.-Head-Change                         Max.-Flux-Residual
  Residual-Control   Outer-Iter.   Inner-Iter.     Column Row Layer    Maximum-Head-Change  Column Row Layer    Maximum-Flux-Residual          L2-NORM 
          0                 1           2             4    7     1       0.4028258341E-01       4    7    1         0.2125092393E+01      0.4941200126E+01
          0                 2           2             4    7     1      -0.3918421364E-02       4    7    1        -0.2125108645E+00      0.4941172343E+00
          0                 3           2             4    7     1       0.2668297727E-03       4    7    1         0.1487575382E-01      0.3458806292E-01
          0                 4           1             4    7     1      -0.1061740705E-04       4    7    1        -0.6084192387E-03      0.1414649784E-02

    ------------------------------------------------
       NWT REQUIRED            4 OUTER ITERATIONS 
       AND A TOTAL OF          7 INNER ITERATIONS.
    ------------------------------------------------

 NO OUTPUT CONTROL FOR STRESS PERIOD   22   TIME STEP   30



 STREAM LISTING     PERIOD     22   STEP       30

 LAYER ROW COL. STREAM  RCH.  FLOW INTO     FLOW TO   FLOW OUT OF   OVRLND.     DIRECT     STREAM       STREAM     STREAM     STREAM   STREAMBED  STREAMBED
                SEG.NO.  NO.  STRM. RCH.    AQUIFER    STRM. RCH.    RUNOFF     PRECIP       ET          HEAD       DEPTH      WIDTH   CONDCTNC.   GRADIENT

   1    1    1     1     1    9.1618E+00  1.4063E-01   9.0211E+00  0.000E+00  0.000E+00  0.000E+00  1.09392E+03  8.721E-01  8.071E+00  3.632E-02  1.291E+00
   1    2    2     1     2    9.0211E+00  2.1609E-01   8.8050E+00  0.000E+00  0.000E+00  0.000E+00  1.08893E+03  8.664E-01  7.984E+00  5.589E-02  1.289E+00
   1    3    3     1     3    8.8050E+00  1.8264E-01   8.6224E+00  0.000E+00  0.000E+00  0.000E+00  1.08328E+03  8.600E-01  7.886E+00  4.732E-02  1.287E+00
   1    3    4     1     4    8.6224E+00  1.6685E-01   8.4556E+00  0.000E+00  0.000E+00  0.000E+00  1.07826E+03  8.543E-01  7.800E+00  4.329E-02  1.285E+00
   1    4    5     2     1    6.4556E+00  2.7527E-01   6.1803E+00  0.000E+00  0.000E+00  0.000E+00  1.07246E+03  5.290E-01  1.200E+01  7.800E-02  1.176E+00
   1    5    6     2     2    6.1803E+00  2.1100E-01   5.9693E+00  0.000E+00  0.000E+00  0.000E+00  1.06703E+03  5.167E-01  1.200E+01  6.000E-02  1.172E+00
   1    6    6     2     3    5.9693E+00  2.1035E-01   5.7589E+00  0.000E+00  0.000E+00  0.000E+00  1.06230E+03  5.059E-01  1.200E+01  6.000E-02  1.169E+00
   1    7    6     2     4    5.7589E+00  2.0970E-01   5.5492E+00  0.000E+00  0.000E+00  0.000E+00  1.05757E+03  4.950E-01  1.200E+01  6.000E-02  1.165E+00
   1    8    6     2     5    5.5492E+00  2.0903E-01   5.3402E+00  0.000E+00  0.000E+00  0.000E+00  1.05284E+03  4.839E-01  1.200E+01  6.000E-02  1.161E+00
   1    3    5     3     1    2.0000E+00  2.8252E-01   1.7175E+00  0.000E+00  0.000E+00  0.000E+00  1.07555E+03  1.909E+00  9.636E+00  7.227E-02  1.955E+00
   1    3    6     3     2    1.7175E+00  2.4905E-01   1.4684E+00  0.000E+00  0.000E+00  0.000E+00  1.07264E+03  1.727E+00  8.909E+00  6.682E-02  1.864E+00
   1    3    7     3     3    1.4684E+00  1.9718E-01   1.2712E+00  0.000E+00  0.000E+00  0.000E+00  1.06987E+03  1.555E+00  8.218E+00  5.547E-02  1.777E+00
   1    4    8     3     4    1.2712E+00  2.2567E-01   1.0456E+00  0.000E+00  0.000E+00  0.000E+00  1.06682E+03  1.364E+00  7.455E+00  6.709E-02  1.682E+00
   1    5    8     3     5    1.0456E+00  1.5790E-01   8.8768E-01  0.000E+00  0.000E+00  0.000E+00  1.06362E+03  1.164E+00  6.655E+00  4.991E-02  1.582E+00
   1    6    8     3     6    8.8768E-01  5.5980E-02   8.3170E-01  0.000E+00  0.000E+00  0.000E+00  1.06158E+03  1.036E+00  6.145E+00  1.844E-02  1.518E+00
   1    5   10     4     1    1.0000E+01  9.0919E-02   9.9091E+00  0.000E+00  0.000E+00  0.000E+00  1.07836E+03  6.368E-01  1.000E+01  2.500E-02  1.212E+00
   1    5    9     4     2    9.9091E+00  1.8158E-01   9.7275E+00  0.000E+00  0.000E+00  0.000E+00  1.07154E+03  6.315E-01  1.000E+01  5.000E-02  1.211E+00
   1    6    8     4     3    9.7275E+00  1.2689E-01   9.6006E+00  0.000E+00  0.000E+00  0.000E+00  1.06381E+03  6.256E-01  1.000E+01  3.500E-02  1.209E+00
   1    6    8     5     1    1.0432E+01  2.2686E-01   1.0205E+01  0.000E+00  0.000E+00  0.000E+00  1.05868E+03  6.790E-01  1.542E+01  6.166E-02  1.226E+00
   1    7    7     5     2    1.0205E+01  2.7894E-01   9.9265E+00  0.000E+00  0.000E+00  0.000E+00  1.05417E+03  6.732E-01  1.519E+01  7.594E-02  1.224E+00
   1    8    7     5     3    9.9265E+00  1.9221E-01   9.7343E+00  0.000E+00  0.000E+00  0.000E+00  1.04992E+03  6.676E-01  1.497E+01  5.241E-02  1.223E+00
   1    8    6     5     4    9.7343E+00  1.3577E-01   9.5985E+00  0.000E+00  0.000E+00  0.000E+00  1.04691E+03  6.637E-01  1.482E+01  3.706E-02  1.221E+00
   1    9    6     6     1    1.4939E+01  2.3354E-01   1.4705E+01  0.000E+00  0.000E+00  0.000E+00  1.04362E+03  8.923E-01  1.200E+01  6.000E-02  1.297E+00
   1   10    7     6     2    1.4705E+01  2.3303E-01   1.4472E+01  0.000E+00  0.000E+00  0.000E+00  1.03907E+03  8.839E-01  1.200E+01  6.000E-02  1.295E+00
   1   11    7     6     3    1.4472E+01  2.3252E-01   1.4240E+01  0.000E+00  0.000E+00  0.000E+00  1.03451E+03  8.754E-01  1.200E+01  6.000E-02  1.292E+00
   1   12    7     6     4    1.4240E+01  2.3201E-01   1.4008E+01  0.000E+00  0.000E+00  0.000E+00  1.02996E+03  8.668E-01  1.200E+01  6.000E-02  1.289E+00
   1   13    7     6     5    1.4008E+01  2.0117E-03   1.4006E+01  0.000E+00  0.000E+00  0.000E+00  1.02677E+03  8.625E-01  1.200E+01  2.400E-02  2.794E-02
   1   14    9     7     1    1.5000E+02  1.3753E+00   1.4862E+02  0.000E+00  0.000E+00  0.000E+00  1.03987E+03  2.288E+00  5.529E+01  5.593E-01  8.196E-01
   1   13    8     7     2    1.4862E+02  1.9580E+00   1.4667E+02  0.000E+00  0.000E+00  0.000E+00  1.03478E+03  2.279E+00  5.525E+01  6.147E-01  1.062E+00
   1   13    7     7     3    1.4667E+02  1.6755E+00   1.4499E+02  0.000E+00  0.000E+00  0.000E+00  1.02969E+03  2.269E+00  5.521E+01  5.584E-01  1.000E+00
   1   13    6     8     1    1.5900E+02  1.0625E+00   1.5793E+02  0.000E+00  0.000E+00  0.000E+00  1.02475E+03  2.875E+00  4.169E+01  4.249E-01  8.336E-01
   1   13    5     8     2    1.5793E+02  3.1696E-01   1.5762E+02  0.000E+00  0.000E+00  0.000E+00  1.01850E+03  2.871E+00  4.163E+01  4.242E-01  2.491E-01
   1   13    4     8     3    1.5762E+02 -1.9413E+00   1.5956E+02  0.000E+00  0.000E+00  0.000E+00  1.01225E+03  2.876E+00  4.171E+01  4.250E+00 -1.523E-01
   1   13    3     8     4    1.5956E+02 -3.4139E+00   1.6297E+02  0.000E+00  0.000E+00  0.000E+00  1.00602E+03  2.894E+00  4.197E+01  4.277E+00 -2.661E-01
   1   13    2     8     5    1.6297E+02 -2.5356E+00   1.6551E+02  0.000E+00  0.000E+00  0.000E+00  9.99789E+02  2.914E+00  4.226E+01  4.306E+00 -1.963E-01
   1   13    1     8     6    1.6551E+02 -1.9847E+00   1.6749E+02  0.000E+00  0.000E+00  0.000E+00  9.94804E+02  2.929E+00  4.247E+01  2.597E+00 -2.547E-01
   1    8    6     9     1    0.0000E+00  0.0000E+00   0.0000E+00  0.000E+00  0.000E+00  0.000E+00  1.07875E+03  0.000E+00  4.000E+00  0.000E+00  1.000E+00
   1    8    5     9     2    0.0000E+00  0.0000E+00   0.0000E+00  0.000E+00  0.000E+00  0.000E+00  1.07825E+03  0.000E+00  4.000E+00  0.000E+00  1.000E+00





UNSATURATED ZONE PACKAGE VOLUMETRIC BUDGET FOR  TIME STEP    30 STRESS PERIOD   22
  ------------------------------------------------------------------------------



     CUMULATIVE VOLUMES      L**3       RATES FOR THIS TIME STEP      L**3/T
     ------------------                 ------------------------

           IN:                                      IN:
           ---                                      ---
        INFILTRATION =   854659363.3325          INFILTRATION =          12.0675

          OUT:                                     OUT:
          ----                                     ----
              UZF ET =   853913895.7883                UZF ET =          12.0675
        UZF RECHARGE =       73224.0000          UZF RECHARGE =       0.0000E+00

            IN - OUT =      672243.5441              IN - OUT =       0.0000E+00

          STORAGE:                                 STORAGE:
          --------                                 --------
      STORAGE CHANGE =      672243.4909        STORAGE CHANGE =       2.7389E-15

 PERCENT DISCREPANCY IS DIFFERENCE BETWEEN IN-OUT MINUS CHANGE IN STORAGE
 DIVIDED BY THE AVERAGE OF IN AND OUT TIMES 100

 PERCENT DISCREPANCY =           0.00     PERCENT DISCREPANCY =           0.00






1
  VOLUMETRIC BUDGET FOR AGRICULTURAL FIELDS AT  END OF TIME STEP   30, STRESS PERIOD  22
  ------------------------------------------------------------------------------

     CUMULATIVE VOLUMES      L**3       RATES FOR THIS TIME STEP      L**3/T
     ------------------                 ------------------------

           IN:                                      IN:
           ---                                      ---
               AG WELLS  =   807776960.0000                 AG WELLS  =          11.2200
      DIVERSION SEGMENTS =           0.0000        DIVERSION SEGMENTS =           0.0000
       IRRIGATION PONDS  =           0.0000         IRRIGATION PONDS  =           0.0000
           GW IRRIGATION =           0.0000             GW IRRIGATION =           0.0000
           SW IRRIGATION =           0.0000             SW IRRIGATION =           0.0000
        SYSTEM LOSSES GW =           0.0000          SYSTEM LOSSES GW =           0.0000
        SYSTEM LOSSES SW =           0.0000          SYSTEM LOSSES SW =           0.0000

                TOTAL IN =   807776960.0000                  TOTAL IN =          11.2200

          OUT:                                     OUT:
          ----                                     ----
               AG WELLS  =           0.0000                 AG WELLS  =           0.0000
      DIVERSION SEGMENTS =           0.0000        DIVERSION SEGMENTS =           0.0000
       IRRIGATION PONDS  =           0.0000         IRRIGATION PONDS  =           0.0000
           GW IRRIGATION =   807776960.0000             GW IRRIGATION =          11.2200
           SW IRRIGATION =           0.0000             SW IRRIGATION =           0.0000
        SYSTEM LOSSES GW =           0.0000          SYSTEM LOSSES GW =           0.0000
        SYSTEM LOSSES SW =           0.0000          SYSTEM LOSSES SW =           0.0000

               TOTAL OUT =   807776960.0000                 TOTAL OUT =          11.2200

                IN - OUT =           0.0000                  IN - OUT =           0.0000

     PERCENT DISCREPANCY =           0.00         PERCENT DISCREPANCY =           0.00



1
  VOLUMETRIC BUDGET FOR ENTIRE MODEL AT END OF TIME STEP   30, STRESS PERIOD  22
  ------------------------------------------------------------------------------

     CUMULATIVE VOLUMES      L**3       RATES FOR THIS TIME STEP      L**3/T
     ------------------                 ------------------------

           IN:                                      IN:
           ---                                      ---
             STORAGE     =   977101056.0000               STORAGE     =          19.2409
       CONSTANT HEAD     =           0.0000         CONSTANT HEAD     =           0.0000
     HEAD DEP BOUNDS     =    15932316.0000       HEAD DEP BOUNDS     =           0.2884
      STREAM LEAKAGE     =   657090688.0000        STREAM LEAKAGE     =          11.5444
        UZF RECHARGE     =       73223.9531          UZF RECHARGE     =           0.0000
               GW ET     =           0.0000                 GW ET     =           0.0000
     SURFACE LEAKAGE     =           0.0000       SURFACE LEAKAGE     =           0.0000
           AG WELLS      =           0.0000             AG WELLS      =           0.0000

                TOTAL IN =  1650197248.0000                  TOTAL IN =          31.0738

          OUT:                                     OUT:
          ----                                     ----
             STORAGE     =   267936304.0000               STORAGE     =           9.6908
       CONSTANT HEAD     =           0.0000         CONSTANT HEAD     =           0.0000
     HEAD DEP BOUNDS     =    15991576.0000       HEAD DEP BOUNDS     =           0.2876
      STREAM LEAKAGE     =   558493760.0000        STREAM LEAKAGE     =           9.8755
        UZF RECHARGE     =           0.0000          UZF RECHARGE     =           0.0000
               GW ET     =           0.0000                 GW ET     =           0.0000
     SURFACE LEAKAGE     =           0.0000       SURFACE LEAKAGE     =           0.0000
           AG WELLS      =   807776960.0000             AG WELLS      =          11.2200

               TOTAL OUT =  1650198528.0000                 TOTAL OUT =          31.0739

                IN - OUT =       -1280.0000                  IN - OUT =      -3.0518E-05

     PERCENT DISCREPANCY =          -0.00         PERCENT DISCREPANCY =          -0.00






         TIME SUMMARY AT END OF TIME STEP   30 IN STRESS PERIOD   22
                    SECONDS     MINUTES      HOURS       DAYS        YEARS
                    -----------------------------------------------------------
   TIME STEP LENGTH  87667.      1461.1      24.352      1.0147     2.77799E-03
 STRESS PERIOD TIME 2.63000E+06  43833.      730.56      30.440     8.33397E-02
         TOTAL TIME 5.53166E+07 9.21944E+05  15366.      640.24      1.7529    
1
1
                            STRESS PERIOD NO.   23, LENGTH =   2630000.    
                            -----------------------------------------------

                              NUMBER OF TIME STEPS =    30

                               MULTIPLIER FOR DELT =     1.000

                            INITIAL TIME STEP SIZE =   87666.66    

 REUSING NON-PARAMETER GHB CELLS FROM LAST STRESS PERIOD

      2 GHB CELLS

 REUSING STREAM SEGMENT DATA FROM LAST STRESS PERIOD



            AREAL INFILTRATION RATE
 READING ON UNIT   19 WITH FORMAT: (FREE)              

            1           2           3           4           5           6           7           8           9          10
 ........................................................................................................................
   1   1.0000E-10  2.0000E-10   0.000       0.000       0.000       0.000       0.000       0.000       0.000       0.000    
   2   2.0000E-10  1.0000E-10  2.0000E-10   0.000       0.000      8.0000E-10  8.0000E-10  5.0000E-10   0.000       0.000    
   3    0.000      5.0000E-10  1.0000E-10  1.0000E-10  8.0000E-10  8.0000E-10  5.0000E-10  5.0000E-10   0.000       0.000    
   4   8.0000E-10  5.0000E-10  1.0000E-10  1.0000E-10  1.0000E-10  1.0000E-10  1.0000E-10  1.0000E-10  2.0000E-10   0.000    
   5   8.0000E-10  5.0000E-10  1.0000E-10  1.0000E-10  1.0000E-10  1.0000E-10  1.0000E-10  1.0000E-10  1.0000E-10  1.0000E-10
   6   8.0000E-10  5.0000E-10  5.0000E-10  2.0000E-10  2.0000E-10  1.0000E-10  1.0000E-10  1.0000E-10  1.0000E-10  5.0000E-10
   7   8.0000E-10  5.0000E-10  5.0000E-10  2.0000E-10  2.0000E-10  1.0000E-10  1.0000E-10  2.0000E-10  2.0000E-10   0.000    
   8    0.000      5.0000E-10  5.0000E-10  2.0000E-10  2.0000E-10  1.0000E-10  1.0000E-10  2.0000E-10  5.0000E-10   0.000    
   9    0.000      5.0000E-10  5.0000E-10  2.0000E-10  2.0000E-10  1.0000E-10  1.0000E-10  2.0000E-10  5.0000E-10   0.000    
  10    0.000      5.0000E-10  5.0000E-10  2.0000E-10  2.0000E-10  1.0000E-10  1.0000E-10  2.0000E-10  5.0000E-10  8.0000E-10
  11    0.000      1.0000E-10  1.0000E-10  1.0000E-10  1.0000E-10  1.0000E-10  1.0000E-10  2.0000E-10  5.0000E-10   0.000    
  12   1.0000E-10  1.0000E-10  1.0000E-10  1.0000E-10  1.0000E-10  1.0000E-10  1.0000E-10  1.0000E-10  2.0000E-10   0.000    
  13   1.0000E-10  1.0000E-10  2.0000E-10  2.0000E-10  2.0000E-10  2.0000E-10  2.0000E-10  1.0000E-10  1.0000E-10   0.000    
  14    0.000      2.0000E-10  5.0000E-10  5.0000E-10  5.0000E-10  5.0000E-10  5.0000E-10  2.0000E-10  1.0000E-10   0.000    
  15    0.000       0.000      8.0000E-10  8.0000E-10  8.0000E-10  8.0000E-10   0.000       0.000       0.000       0.000    

                  ET RATE =  5.000000E-09

 USING ET EXTINCTION DEPTH FROM PREVIOUS STRESS PERIOD. CURRENT PERIOD IS:      23

 USING EXTINCTION WATER CONTENT FROM PREVIOUS STRESS PERIOD. CURRENT PERIOD IS:      23

 USING AIR ENTRY PRESSURE FROM PREVIOUS STRESS PERIOD. CURRENT PERIOD IS:      23

 USING ROOT PRESSURE HEAD FROM PREVIOUS STRESS PERIOD. CURRENT PERIOD IS:      23

 USING ROOT ACTIVITY FROM PREVIOUS STRESS PERIOD. CURRENT PERIOD IS:      23

 PROCESSING AG STRESS PERIOD DATA

 READING AG STRESS PERIOD DATA

 READING IRRIGATION SEGMENT

 READING IRRIGATION WELL

 READING SUPPLEMENTAL WELL

 NO IRRPOND OR REUSING IRRPOND DATA FROM LAST STRESS PERIOD

 END PROCESSING AG STRESS PERIOD DATA OPTIONS
 
 SOLVING FOR HEAD 
                                                   Max.-Head-Change                         Max.-Flux-Residual
  Residual-Control   Outer-Iter.   Inner-Iter.     Column Row Layer    Maximum-Head-Change  Column Row Layer    Maximum-Flux-Residual          L2-NORM 
          0                 1           2             4    7     1       0.7549082389E-01       4    7    1         0.3962956429E+01      0.8970161552E+01
          0                 2           2             4    7     1      -0.7343259586E-02       4    7    1        -0.3962998052E+00      0.8970134125E+00
          0                 3           2             4    7     1       0.5000481588E-03       4    7    1         0.2774095897E-01      0.6279074613E-01
          0                 4           1             4    7     1      -0.1989738666E-04       4    7    1        -0.1134606989E-02      0.2568130014E-02

    ------------------------------------------------
       NWT REQUIRED            4 OUTER ITERATIONS 
       AND A TOTAL OF          7 INNER ITERATIONS.
    ------------------------------------------------

 NO OUTPUT CONTROL FOR STRESS PERIOD   23   TIME STEP    1
 
 SOLVING FOR HEAD 
                                                   Max.-Head-Change                         Max.-Flux-Residual
  Residual-Control   Outer-Iter.   Inner-Iter.     Column Row Layer    Maximum-Head-Change  Column Row Layer    Maximum-Flux-Residual          L2-NORM 
          0                 1           2             4    7     1       0.7469526349E-01       4    7    1         0.3922262920E+01      0.8793201071E+01
          0                 2           2             4    7     1      -0.7265875349E-02       4    7    1        -0.3922305930E+00      0.8793179548E+00
          0                 3           2             4    7     1       0.4947785583E-03       4    7    1         0.2745611267E-01      0.6155207704E-01
          0                 4           1             4    7     1      -0.1968770442E-04       4    7    1        -0.1122956755E-02      0.2517472510E-02

    ------------------------------------------------
       NWT REQUIRED            4 OUTER ITERATIONS 
       AND A TOTAL OF          7 INNER ITERATIONS.
    ------------------------------------------------

 NO OUTPUT CONTROL FOR STRESS PERIOD   23   TIME STEP    2
 
 SOLVING FOR HEAD 
                                                   Max.-Head-Change                         Max.-Flux-Residual
  Residual-Control   Outer-Iter.   Inner-Iter.     Column Row Layer    Maximum-Head-Change  Column Row Layer    Maximum-Flux-Residual          L2-NORM 
          0                 1           2             4    7     1       0.7388928476E-01       4    7    1         0.3880935412E+01      0.8622968147E+01
          0                 2           2             4    7     1      -0.7187477334E-02       4    7    1        -0.3880979573E+00      0.8622951519E+00
          0                 3           2             4    7     1       0.4894399276E-03       4    7    1         0.2716682698E-01      0.6036048394E-01
          0                 4           1             4    7     1      -0.1947527523E-04       4    7    1        -0.1111124969E-02      0.2468728086E-02

    ------------------------------------------------
       NWT REQUIRED            4 OUTER ITERATIONS 
       AND A TOTAL OF          7 INNER ITERATIONS.
    ------------------------------------------------

 NO OUTPUT CONTROL FOR STRESS PERIOD   23   TIME STEP    3
 
 SOLVING FOR HEAD 
                                                   Max.-Head-Change                         Max.-Flux-Residual
  Residual-Control   Outer-Iter.   Inner-Iter.     Column Row Layer    Maximum-Head-Change  Column Row Layer    Maximum-Flux-Residual          L2-NORM 
          0                 1           2             4    7     1       0.7307431899E-01       4    7    1         0.3839053247E+01      0.8459045807E+01
          0                 2           2             4    7     1      -0.7108204802E-02       4    7    1        -0.3839098342E+00      0.8459033692E+00
          0                 3           2             4    7     1       0.4840417474E-03       4    7    1         0.2687365732E-01      0.5921307596E-01
          0                 4           1             4    7     1      -0.1926047660E-04       4    7    1        -0.1099134300E-02      0.2421811881E-02

    ------------------------------------------------
       NWT REQUIRED            4 OUTER ITERATIONS 
       AND A TOTAL OF          7 INNER ITERATIONS.
    ------------------------------------------------

 NO OUTPUT CONTROL FOR STRESS PERIOD   23   TIME STEP    4
 
 SOLVING FOR HEAD 
                                                   Max.-Head-Change                         Max.-Flux-Residual
  Residual-Control   Outer-Iter.   Inner-Iter.     Column Row Layer    Maximum-Head-Change  Column Row Layer    Maximum-Flux-Residual          L2-NORM 
          0                 1           2             4    7     1       0.7225210046E-01       4    7    1         0.3796712311E+01      0.8301059271E+01
          0                 2           2             4    7     1      -0.7028226480E-02       4    7    1        -0.3796758143E+00      0.8301050939E+00
          0                 3           2             4    7     1       0.4785955099E-03       4    7    1         0.2657727513E-01      0.5810720203E-01
          0                 4           1             4    7     1      -0.1904376593E-04       4    7    1        -0.1087012263E-02      0.2376576758E-02

    ------------------------------------------------
       NWT REQUIRED            4 OUTER ITERATIONS 
       AND A TOTAL OF          7 INNER ITERATIONS.
    ------------------------------------------------

 NO OUTPUT CONTROL FOR STRESS PERIOD   23   TIME STEP    5
 
 SOLVING FOR HEAD 
                                                   Max.-Head-Change                         Max.-Flux-Residual
  Residual-Control   Outer-Iter.   Inner-Iter.     Column Row Layer    Maximum-Head-Change  Column Row Layer    Maximum-Flux-Residual          L2-NORM 
          0                 1           2             4    7     1       0.7142425209E-01       4    7    1         0.3754002527E+01      0.8148675662E+01
          0                 2           2             4    7     1      -0.6947700263E-02       4    7    1        -0.3754048920E+00      0.8148670837E+00
          0                 3           2             4    7     1       0.4731119643E-03       4    7    1         0.2627830988E-01      0.5704055489E-01
          0                 4           1             4    7     1      -0.1882557092E-04       4    7    1        -0.1074784572E-02      0.2332955422E-02

    ------------------------------------------------
       NWT REQUIRED            4 OUTER ITERATIONS 
       AND A TOTAL OF          7 INNER ITERATIONS.
    ------------------------------------------------

 NO OUTPUT CONTROL FOR STRESS PERIOD   23   TIME STEP    6
 
 SOLVING FOR HEAD 
                                                   Max.-Head-Change                         Max.-Flux-Residual
  Residual-Control   Outer-Iter.   Inner-Iter.     Column Row Layer    Maximum-Head-Change  Column Row Layer    Maximum-Flux-Residual          L2-NORM 
          0                 1           2             4    7     1       0.7059175726E-01       4    7    1         0.3710979125E+01      0.8001553123E+01
          0                 2           2             4    7     1      -0.6866721830E-02       4    7    1        -0.3711025916E+00      0.8001551226E+00
          0                 3           2             4    7     1       0.4675976277E-03       4    7    1         0.2597714837E-01      0.5601072259E-01
          0                 4           1             4    7     1      -0.1860615027E-04       4    7    1        -0.1062467063E-02      0.2290824721E-02

    ------------------------------------------------
       NWT REQUIRED            4 OUTER ITERATIONS 
       AND A TOTAL OF          7 INNER ITERATIONS.
    ------------------------------------------------

 NO OUTPUT CONTROL FOR STRESS PERIOD   23   TIME STEP    7
 
 SOLVING FOR HEAD 
                                                   Max.-Head-Change                         Max.-Flux-Residual
  Residual-Control   Outer-Iter.   Inner-Iter.     Column Row Layer    Maximum-Head-Change  Column Row Layer    Maximum-Flux-Residual          L2-NORM 
          0                 1           2             4    7     1       0.6975631844E-01       4    7    1         0.3667736466E+01      0.7859406851E+01
          0                 2           2             4    7     1      -0.6785456811E-02       4    7    1        -0.3667783513E+00      0.7859407526E+00
          0                 3           2             4    7     1       0.4620637769E-03       4    7    1         0.2567445116E-01      0.5501571852E-01
          0                 4           1             4    7     1      -0.1838595307E-04       4    7    1        -0.1050086712E-02      0.2250132301E-02

    ------------------------------------------------
       NWT REQUIRED            4 OUTER ITERATIONS 
       AND A TOTAL OF          7 INNER ITERATIONS.
    ------------------------------------------------

 NO OUTPUT CONTROL FOR STRESS PERIOD   23   TIME STEP    8
 
 SOLVING FOR HEAD 
                                                   Max.-Head-Change                         Max.-Flux-Residual
  Residual-Control   Outer-Iter.   Inner-Iter.     Column Row Layer    Maximum-Head-Change  Column Row Layer    Maximum-Flux-Residual          L2-NORM 
          0                 1           2             4    7     1       0.6891886594E-01       4    7    1         0.3624326674E+01      0.7721966701E+01
          0                 2           2             4    7     1      -0.6703995720E-02       4    7    1        -0.3624373844E+00      0.7721969498E+00
          0                 3           2             4    7     1       0.4565165767E-03       4    7    1         0.2537058323E-01      0.5405365417E-01
          0                 4           1             4    7     1      -0.1816522480E-04       4    7    1        -0.1037658511E-02      0.2210790381E-02

    ------------------------------------------------
       NWT REQUIRED            4 OUTER ITERATIONS 
       AND A TOTAL OF          7 INNER ITERATIONS.
    ------------------------------------------------

 NO OUTPUT CONTROL FOR STRESS PERIOD   23   TIME STEP    9
 
 SOLVING FOR HEAD 
                                                   Max.-Head-Change                         Max.-Flux-Residual
  Residual-Control   Outer-Iter.   Inner-Iter.     Column Row Layer    Maximum-Head-Change  Column Row Layer    Maximum-Flux-Residual          L2-NORM 
          0                 1           2             4    7     1       0.6808051987E-01       4    7    1         0.3580812441E+01      0.7588972725E+01
          0                 2           2             4    7     1      -0.6622447534E-02       4    7    1        -0.3580859617E+00      0.7588977533E+00
          0                 3           2             4    7     1       0.4509634477E-03       4    7    1         0.2506598351E-01      0.5312271734E-01
          0                 4           1             4    7     1      -0.1794426097E-04       4    7    1        -0.1025200375E-02      0.2172717485E-02

    ------------------------------------------------
       NWT REQUIRED            4 OUTER ITERATIONS 
       AND A TOTAL OF          7 INNER ITERATIONS.
    ------------------------------------------------

 NO OUTPUT CONTROL FOR STRESS PERIOD   23   TIME STEP   10
 
 SOLVING FOR HEAD 
                                                   Max.-Head-Change                         Max.-Flux-Residual
  Residual-Control   Outer-Iter.   Inner-Iter.     Column Row Layer    Maximum-Head-Change  Column Row Layer    Maximum-Flux-Residual          L2-NORM 
          0                 1           2             4    7     1       0.6724245247E-01       4    7    1         0.3537259080E+01      0.7460201746E+01
          0                 2           2             4    7     1      -0.6540926298E-02       4    7    1        -0.3537306157E+00      0.7460208301E+00
          0                 3           2             4    7     1       0.4454121548E-03       4    7    1         0.2476110924E-01      0.5222134691E-01
          0                 4           1             4    7     1      -0.1772336990E-04       4    7    1        -0.1012731003E-02      0.2135854895E-02

    ------------------------------------------------
       NWT REQUIRED            4 OUTER ITERATIONS 
       AND A TOTAL OF          7 INNER ITERATIONS.
    ------------------------------------------------

 NO OUTPUT CONTROL FOR STRESS PERIOD   23   TIME STEP   11
 
 SOLVING FOR HEAD 
                                                   Max.-Head-Change                         Max.-Flux-Residual
  Residual-Control   Outer-Iter.   Inner-Iter.     Column Row Layer    Maximum-Head-Change  Column Row Layer    Maximum-Flux-Residual          L2-NORM 
          0                 1           2             4    7     1       0.6640561559E-01       4    7    1         0.3493720136E+01      0.7335429625E+01
          0                 2           2             4    7     1      -0.6459524620E-02       4    7    1        -0.3493767020E+00      0.7335437229E+00
          0                 3           2             4    7     1       0.4398690049E-03       4    7    1         0.2445633535E-01      0.5134792205E-01
          0                 4           1             4    7     1      -0.1750280246E-04       4    7    1        -0.1000265717E-02      0.2100131436E-02

    ------------------------------------------------
       NWT REQUIRED            4 OUTER ITERATIONS 
       AND A TOTAL OF          7 INNER ITERATIONS.
    ------------------------------------------------

 NO OUTPUT CONTROL FOR STRESS PERIOD   23   TIME STEP   12
 
 SOLVING FOR HEAD 
                                                   Max.-Head-Change                         Max.-Flux-Residual
  Residual-Control   Outer-Iter.   Inner-Iter.     Column Row Layer    Maximum-Head-Change  Column Row Layer    Maximum-Flux-Residual          L2-NORM 
          0                 1           2             4    7     1       0.6557075533E-01       4    7    1         0.3450237726E+01      0.7214457866E+01
          0                 2           2             4    7     1      -0.6378315087E-02       4    7    1        -0.3450284334E+00      0.7214466812E+00
          0                 3           2             4    7     1       0.4343389406E-03       4    7    1         0.2415195666E-01      0.5050115350E-01
          0                 4           1             4    7     1      -0.1728275608E-04       4    7    1        -0.9878166145E-03      0.2065492663E-02

    ------------------------------------------------
       NWT REQUIRED            4 OUTER ITERATIONS 
       AND A TOTAL OF          7 INNER ITERATIONS.
    ------------------------------------------------

 NO OUTPUT CONTROL FOR STRESS PERIOD   23   TIME STEP   13
 
 SOLVING FOR HEAD 
                                                   Max.-Head-Change                         Max.-Flux-Residual
  Residual-Control   Outer-Iter.   Inner-Iter.     Column Row Layer    Maximum-Head-Change  Column Row Layer    Maximum-Flux-Residual          L2-NORM 
          0                 1           2             4    7     1       0.6473881921E-01       4    7    1         0.3406865006E+01      0.7097099093E+01
          0                 2           2             4    7     1      -0.6297389883E-02       4    7    1        -0.3406911264E+00      0.7097109187E+00
          0                 3           2             4    7     1       0.4288282393E-03       4    7    1         0.2384834538E-01      0.4967965908E-01
          0                 4           1             4    7     1      -0.1706348014E-04       4    7    1        -0.9753988993E-03      0.2031895576E-02

    ------------------------------------------------
       NWT REQUIRED            4 OUTER ITERATIONS 
       AND A TOTAL OF          7 INNER ITERATIONS.
    ------------------------------------------------

 NO OUTPUT CONTROL FOR STRESS PERIOD   23   TIME STEP   14
 
 SOLVING FOR HEAD 
                                                   Max.-Head-Change                         Max.-Flux-Residual
  Residual-Control   Outer-Iter.   Inner-Iter.     Column Row Layer    Maximum-Head-Change  Column Row Layer    Maximum-Flux-Residual          L2-NORM 
          0                 1           2             4    7     1       0.6391041822E-01       4    7    1         0.3363636630E+01      0.6983177825E+01
          0                 2           2             4    7     1      -0.6216808454E-02       4    7    1        -0.3363682473E+00      0.6983188708E+00
          0                 3           2             4    7     1       0.4233409486E-03       4    7    1         0.2354574411E-01      0.4888221891E-01
          0                 4           1             4    7     1      -0.1684513558E-04       4    7    1        -0.9630224854E-03      0.1999280493E-02

    ------------------------------------------------
       NWT REQUIRED            4 OUTER ITERATIONS 
       AND A TOTAL OF          7 INNER ITERATIONS.
    ------------------------------------------------

 NO OUTPUT CONTROL FOR STRESS PERIOD   23   TIME STEP   15
 
 SOLVING FOR HEAD 
                                                   Max.-Head-Change                         Max.-Flux-Residual
  Residual-Control   Outer-Iter.   Inner-Iter.     Column Row Layer    Maximum-Head-Change  Column Row Layer    Maximum-Flux-Residual          L2-NORM 
          0                 1           2             4    7     1       0.6308636852E-01       4    7    1         0.3320598755E+01      0.6872530443E+01
          0                 2           2             4    7     1      -0.6136650200E-02       4    7    1        -0.3320644124E+00      0.6872542065E+00
          0                 3           2             4    7     1       0.4178824751E-03       4    7    1         0.2324447598E-01      0.4810769418E-01
          0                 4           1             4    7     1      -0.1662793758E-04       4    7    1        -0.9507005782E-03      0.1967599471E-02

    ------------------------------------------------
       NWT REQUIRED            4 OUTER ITERATIONS 
       AND A TOTAL OF          7 INNER ITERATIONS.
    ------------------------------------------------

 NO OUTPUT CONTROL FOR STRESS PERIOD   23   TIME STEP   16
 
 SOLVING FOR HEAD 
                                                   Max.-Head-Change                         Max.-Flux-Residual
  Residual-Control   Outer-Iter.   Inner-Iter.     Column Row Layer    Maximum-Head-Change  Column Row Layer    Maximum-Flux-Residual          L2-NORM 
          0                 1           2             4    7     1       0.6226716059E-01       4    7    1         0.3277779217E+01      0.6765011374E+01
          0                 2           2             4    7     1      -0.6056962844E-02       4    7    1        -0.3277824063E+00      0.6765023459E+00
          0                 3           2             4    7     1       0.4124560689E-03       4    7    1         0.2294473591E-01      0.4735506331E-01
          0                 4           1             4    7     1      -0.1641201576E-04       4    7    1        -0.9384412017E-03      0.1936823667E-02

    ------------------------------------------------
       NWT REQUIRED            4 OUTER ITERATIONS 
       AND A TOTAL OF          7 INNER ITERATIONS.
    ------------------------------------------------

 NO OUTPUT CONTROL FOR STRESS PERIOD   23   TIME STEP   17
 
 SOLVING FOR HEAD 
                                                   Max.-Head-Change                         Max.-Flux-Residual
  Residual-Control   Outer-Iter.   Inner-Iter.     Column Row Layer    Maximum-Head-Change  Column Row Layer    Maximum-Flux-Residual          L2-NORM 
          0                 1           2             4    7     1       0.6145363214E-01       4    7    1         0.3235225172E+01      0.6660479260E+01
          0                 2           2             4    7     1      -0.5977827881E-02       4    7    1        -0.3235269451E+00      0.6660491809E+00
          0                 3           2             4    7     1       0.4070672797E-03       4    7    1         0.2264685404E-01      0.4662334655E-01
          0                 4           1             4    7     1      -0.1619759084E-04       4    7    1        -0.9262578151E-03      0.1906893135E-02

    ------------------------------------------------
       NWT REQUIRED            4 OUTER ITERATIONS 
       AND A TOTAL OF          7 INNER ITERATIONS.
    ------------------------------------------------

 NO OUTPUT CONTROL FOR STRESS PERIOD   23   TIME STEP   18
 
 SOLVING FOR HEAD 
                                                   Max.-Head-Change                         Max.-Flux-Residual
  Residual-Control   Outer-Iter.   Inner-Iter.     Column Row Layer    Maximum-Head-Change  Column Row Layer    Maximum-Flux-Residual          L2-NORM 
          0                 1           2             4    7     1       0.6064602245E-01       4    7    1         0.3192951088E+01      0.6558796502E+01
          0                 2           2             4    7     1      -0.5899268595E-02       4    7    1        -0.3192994762E+00      0.6558809380E+00
          0                 3           2             4    7     1       0.4017176921E-03       4    7    1         0.2235093166E-01      0.4591157566E-01
          0                 4           1             4    7     1      -0.1598472566E-04       4    7    1        -0.9141545650E-03      0.1877787010E-02

    ------------------------------------------------
       NWT REQUIRED            4 OUTER ITERATIONS 
       AND A TOTAL OF          7 INNER ITERATIONS.
    ------------------------------------------------

 NO OUTPUT CONTROL FOR STRESS PERIOD   23   TIME STEP   19
 
 SOLVING FOR HEAD 
                                                   Max.-Head-Change                         Max.-Flux-Residual
  Residual-Control   Outer-Iter.   Inner-Iter.     Column Row Layer    Maximum-Head-Change  Column Row Layer    Maximum-Flux-Residual          L2-NORM 
          0                 1           2             4    7     1       0.5984506797E-01       4    7    1         0.3150998340E+01      0.6459846543E+01
          0                 2           2             4    7     1      -0.5821356633E-02       4    7    1        -0.3151041377E+00      0.6459859593E+00
          0                 3           2             4    7     1       0.3964121857E-03       4    7    1         0.2205725844E-01      0.4521892251E-01
          0                 4           1             4    7     1      -0.1577361480E-04       4    7    1        -0.9021433252E-03      0.1849450121E-02

    ------------------------------------------------
       NWT REQUIRED            4 OUTER ITERATIONS 
       AND A TOTAL OF          7 INNER ITERATIONS.
    ------------------------------------------------

 NO OUTPUT CONTROL FOR STRESS PERIOD   23   TIME STEP   20
 
 SOLVING FOR HEAD 
                                                   Max.-Head-Change                         Max.-Flux-Residual
  Residual-Control   Outer-Iter.   Inner-Iter.     Column Row Layer    Maximum-Head-Change  Column Row Layer    Maximum-Flux-Residual          L2-NORM 
          0                 1           2             4    7     1       0.5905091806E-01       4    7    1         0.3109376142E+01      0.6363504620E+01
          0                 2           2             4    7     1      -0.5744106527E-02       4    7    1        -0.3109418514E+00      0.6363517968E+00
          0                 3           2             4    7     1       0.3911517495E-03       4    7    1         0.2176589892E-01      0.4454453575E-01
          0                 4           1             4    7     1      -0.1556429705E-04       4    7    1        -0.8902266984E-03      0.1821869676E-02

    ------------------------------------------------
       NWT REQUIRED            4 OUTER ITERATIONS 
       AND A TOTAL OF          7 INNER ITERATIONS.
    ------------------------------------------------

 NO OUTPUT CONTROL FOR STRESS PERIOD   23   TIME STEP   21
 
 SOLVING FOR HEAD 
                                                   Max.-Head-Change                         Max.-Flux-Residual
  Residual-Control   Outer-Iter.   Inner-Iter.     Column Row Layer    Maximum-Head-Change  Column Row Layer    Maximum-Flux-Residual          L2-NORM 
          0                 1           2             4    7     1       0.5826408665E-01       4    7    1         0.3068113968E+01      0.6269666522E+01
          0                 2           2             4    7     1      -0.5667568279E-02       4    7    1        -0.3068155652E+00      0.6269678511E+00
          0                 3           2             4    7     1       0.3859397885E-03       4    7    1         0.2147705941E-01      0.4388766099E-01
          0                 4           1             4    7     1      -0.1535690814E-04       4    7    1        -0.8784131533E-03      0.1795000085E-02

    ------------------------------------------------
       NWT REQUIRED            4 OUTER ITERATIONS 
       AND A TOTAL OF          7 INNER ITERATIONS.
    ------------------------------------------------

 NO OUTPUT CONTROL FOR STRESS PERIOD   23   TIME STEP   22
 
 SOLVING FOR HEAD 
                                                   Max.-Head-Change                         Max.-Flux-Residual
  Residual-Control   Outer-Iter.   Inner-Iter.     Column Row Layer    Maximum-Head-Change  Column Row Layer    Maximum-Flux-Residual          L2-NORM 
          0                 1           2             4    7     1       0.5748504090E-01       4    7    1         0.3027238468E+01      0.6178230939E+01
          0                 2           2             4    7     1      -0.5591787334E-02       4    7    1        -0.3027279446E+00      0.6178244195E+00
          0                 3           2             4    7     1       0.3807793969E-03       4    7    1         0.2119092651E-01      0.4324762042E-01
          0                 4           1             4    7     1      -0.1515157105E-04       4    7    1        -0.8667102718E-03      0.1768822485E-02

    ------------------------------------------------
       NWT REQUIRED            4 OUTER ITERATIONS 
       AND A TOTAL OF          7 INNER ITERATIONS.
    ------------------------------------------------

 NO OUTPUT CONTROL FOR STRESS PERIOD   23   TIME STEP   23
 
 SOLVING FOR HEAD 
                                                   Max.-Head-Change                         Max.-Flux-Residual
  Residual-Control   Outer-Iter.   Inner-Iter.     Column Row Layer    Maximum-Head-Change  Column Row Layer    Maximum-Flux-Residual          L2-NORM 
          0                 1           2             4    7     1       0.5671394220E-01       4    7    1         0.2986759372E+01      0.6089103088E+01
          0                 2           2             4    7     1      -0.5516779398E-02       4    7    1        -0.2986799628E+00      0.6089116275E+00
          0                 3           2             4    7     1       0.3756716448E-03       4    7    1         0.2090756833E-01      0.4262372021E-01
          0                 4           1             4    7     1      -0.1494832893E-04       4    7    1        -0.8551209123E-03      0.1743303113E-02

    ------------------------------------------------
       NWT REQUIRED            4 OUTER ITERATIONS 
       AND A TOTAL OF          7 INNER ITERATIONS.
    ------------------------------------------------

 NO OUTPUT CONTROL FOR STRESS PERIOD   23   TIME STEP   24
 
 SOLVING FOR HEAD 
                                                   Max.-Head-Change                         Max.-Flux-Residual
  Residual-Control   Outer-Iter.   Inner-Iter.     Column Row Layer    Maximum-Head-Change  Column Row Layer    Maximum-Flux-Residual          L2-NORM 
          0                 1           2             4    7     1       0.5595118185E-01       4    7    1         0.2946699542E+01      0.6002186178E+01
          0                 2           2             4    7     1      -0.5442582540E-02       4    7    1        -0.2946739065E+00      0.6002199298E+00
          0                 3           2             4    7     1       0.3706191244E-03       4    7    1         0.2062714497E-01      0.4201530966E-01
          0                 4           1             4    7     1      -0.1474728436E-04       4    7    1        -0.8436515791E-03      0.1718421528E-02

    ------------------------------------------------
       NWT REQUIRED            4 OUTER ITERATIONS 
       AND A TOTAL OF          7 INNER ITERATIONS.
    ------------------------------------------------

 NO OUTPUT CONTROL FOR STRESS PERIOD   23   TIME STEP   25
 
 SOLVING FOR HEAD 
                                                   Max.-Head-Change                         Max.-Flux-Residual
  Residual-Control   Outer-Iter.   Inner-Iter.     Column Row Layer    Maximum-Head-Change  Column Row Layer    Maximum-Flux-Residual          L2-NORM 
          0                 1           2             4    7     1       0.5519698719E-01       4    7    1         0.2907072021E+01      0.5917405014E+01
          0                 2           2             4    7     1      -0.5369218875E-02       4    7    1        -0.2907110802E+00      0.5917418014E+00
          0                 3           2             4    7     1       0.3656233415E-03       4    7    1         0.2034974771E-01      0.4142184381E-01
          0                 4           1             4    7     1      -0.1454849768E-04       4    7    1        -0.8323060176E-03      0.1694151794E-02

    ------------------------------------------------
       NWT REQUIRED            4 OUTER ITERATIONS 
       AND A TOTAL OF          7 INNER ITERATIONS.
    ------------------------------------------------

 NO OUTPUT CONTROL FOR STRESS PERIOD   23   TIME STEP   26
 
 SOLVING FOR HEAD 
                                                   Max.-Head-Change                         Max.-Flux-Residual
  Residual-Control   Outer-Iter.   Inner-Iter.     Column Row Layer    Maximum-Head-Change  Column Row Layer    Maximum-Flux-Residual          L2-NORM 
          0                 1           2             4    7     1       0.5445141857E-01       4    7    1         0.2867881346E+01      0.5834668542E+01
          0                 2           2             4    7     1      -0.5296694280E-02       4    7    1        -0.2867919379E+00      0.5834681227E+00
          0                 3           2             4    7     1       0.3606846964E-03       4    7    1         0.2007540834E-01      0.4084269582E-01
          0                 4           1             4    7     1      -0.1435198396E-04       4    7    1        -0.8210855190E-03      0.1670480272E-02

    ------------------------------------------------
       NWT REQUIRED            4 OUTER ITERATIONS 
       AND A TOTAL OF          7 INNER ITERATIONS.
    ------------------------------------------------

 NO OUTPUT CONTROL FOR STRESS PERIOD   23   TIME STEP   27
 
 SOLVING FOR HEAD 
                                                   Max.-Head-Change                         Max.-Flux-Residual
  Residual-Control   Outer-Iter.   Inner-Iter.     Column Row Layer    Maximum-Head-Change  Column Row Layer    Maximum-Flux-Residual          L2-NORM 
          0                 1           2             4    7     1       0.5371478582E-01       4    7    1         0.2829145147E+01      0.5753908331E+01
          0                 2           2             4    7     1      -0.5235043391E-02       4    7    1        -0.2835877419E+00      0.5754605902E+00
          0                 3           2             4    7     1       0.3564864698E-03       4    7    1         0.1985111248E-01      0.4028215584E-01
          0                 4           1             4    7     1      -0.1418493289E-04       4    7    1        -0.8119118042E-03      0.1647533719E-02

    ------------------------------------------------
       NWT REQUIRED            4 OUTER ITERATIONS 
       AND A TOTAL OF          7 INNER ITERATIONS.
    ------------------------------------------------

 NO OUTPUT CONTROL FOR STRESS PERIOD   23   TIME STEP   28
 
 SOLVING FOR HEAD 
                                                   Max.-Head-Change                         Max.-Flux-Residual
  Residual-Control   Outer-Iter.   Inner-Iter.     Column Row Layer    Maximum-Head-Change  Column Row Layer    Maximum-Flux-Residual          L2-NORM 
          0                 1           2             4    7     1       0.5295948319E-01       4    7    1         0.2790338970E+01      0.5674990318E+01
          0                 2           2             4    7     1      -0.5151646739E-02       4    7    1        -0.2790377798E+00      0.5675312065E+00
          0                 3           2             4    7     1       0.3508074864E-03       4    7    1         0.1953261632E-01      0.3972710567E-01
          0                 4           1             4    7     1      -0.1395896101E-04       4    7    1        -0.7988853029E-03      0.1624837931E-02

    ------------------------------------------------
       NWT REQUIRED            4 OUTER ITERATIONS 
       AND A TOTAL OF          7 INNER ITERATIONS.
    ------------------------------------------------

 NO OUTPUT CONTROL FOR STRESS PERIOD   23   TIME STEP   29
 
 SOLVING FOR HEAD 
                                                   Max.-Head-Change                         Max.-Flux-Residual
  Residual-Control   Outer-Iter.   Inner-Iter.     Column Row Layer    Maximum-Head-Change  Column Row Layer    Maximum-Flux-Residual          L2-NORM 
          0                 1           2             4    7     1       0.5222450424E-01       4    7    1         0.2751619802E+01      0.5597831084E+01
          0                 2           2             4    7     1      -0.5080076053E-02       4    7    1        -0.2751657770E+00      0.5597843461E+00
          0                 3           2             4    7     1       0.3459338000E-03       4    7    1         0.1926157679E-01      0.3918482564E-01
          0                 4           1             4    7     1      -0.1376503237E-04       4    7    1        -0.7877997659E-03      0.1602658744E-02

    ------------------------------------------------
       NWT REQUIRED            4 OUTER ITERATIONS 
       AND A TOTAL OF          7 INNER ITERATIONS.
    ------------------------------------------------

 NO OUTPUT CONTROL FOR STRESS PERIOD   23   TIME STEP   30



 STREAM LISTING     PERIOD     23   STEP       30

 LAYER ROW COL. STREAM  RCH.  FLOW INTO     FLOW TO   FLOW OUT OF   OVRLND.     DIRECT     STREAM       STREAM     STREAM     STREAM   STREAMBED  STREAMBED
                SEG.NO.  NO.  STRM. RCH.    AQUIFER    STRM. RCH.    RUNOFF     PRECIP       ET          HEAD       DEPTH      WIDTH   CONDCTNC.   GRADIENT

   1    1    1     1     1    8.2501E+00  1.3178E-01   8.1183E+00  0.000E+00  0.000E+00  0.000E+00  1.09389E+03  8.424E-01  7.622E+00  3.430E-02  1.281E+00
   1    2    2     1     2    8.1183E+00  2.0241E-01   7.9159E+00  0.000E+00  0.000E+00  0.000E+00  1.08890E+03  8.367E-01  7.537E+00  5.276E-02  1.279E+00
   1    3    3     1     3    7.9159E+00  1.7099E-01   7.7449E+00  0.000E+00  0.000E+00  0.000E+00  1.08325E+03  8.302E-01  7.440E+00  4.464E-02  1.277E+00
   1    3    4     1     4    7.7449E+00  1.5612E-01   7.5888E+00  0.000E+00  0.000E+00  0.000E+00  1.07823E+03  8.244E-01  7.355E+00  4.082E-02  1.275E+00
   1    4    5     2     1    5.5888E+00  2.7178E-01   5.3170E+00  0.000E+00  0.000E+00  0.000E+00  1.07242E+03  4.843E-01  1.200E+01  7.800E-02  1.161E+00
   1    5    6     2     2    5.3170E+00  2.0828E-01   5.1088E+00  0.000E+00  0.000E+00  0.000E+00  1.06698E+03  4.714E-01  1.200E+01  6.000E-02  1.157E+00
   1    6    6     2     3    5.1088E+00  2.0760E-01   4.9012E+00  0.000E+00  0.000E+00  0.000E+00  1.06225E+03  4.600E-01  1.200E+01  6.000E-02  1.153E+00
   1    7    6     2     4    4.9012E+00  2.0691E-01   4.6943E+00  0.000E+00  0.000E+00  0.000E+00  1.05752E+03  4.485E-01  1.200E+01  6.000E-02  1.150E+00
   1    8    6     2     5    4.6943E+00  2.0621E-01   4.4880E+00  0.000E+00  0.000E+00  0.000E+00  1.05280E+03  4.368E-01  1.200E+01  6.000E-02  1.146E+00
   1    3    5     3     1    2.0000E+00  2.8252E-01   1.7175E+00  0.000E+00  0.000E+00  0.000E+00  1.07555E+03  1.909E+00  9.636E+00  7.227E-02  1.955E+00
   1    3    6     3     2    1.7175E+00  2.4905E-01   1.4684E+00  0.000E+00  0.000E+00  0.000E+00  1.07264E+03  1.727E+00  8.909E+00  6.682E-02  1.864E+00
   1    3    7     3     3    1.4684E+00  1.9718E-01   1.2712E+00  0.000E+00  0.000E+00  0.000E+00  1.06987E+03  1.555E+00  8.218E+00  5.547E-02  1.777E+00
   1    4    8     3     4    1.2712E+00  2.2567E-01   1.0456E+00  0.000E+00  0.000E+00  0.000E+00  1.06682E+03  1.364E+00  7.455E+00  6.709E-02  1.682E+00
   1    5    8     3     5    1.0456E+00  1.5790E-01   8.8768E-01  0.000E+00  0.000E+00  0.000E+00  1.06362E+03  1.164E+00  6.655E+00  4.991E-02  1.582E+00
   1    6    8     3     6    8.8768E-01  5.5980E-02   8.3170E-01  0.000E+00  0.000E+00  0.000E+00  1.06158E+03  1.036E+00  6.145E+00  1.844E-02  1.518E+00
   1    5   10     4     1    1.0000E+01  9.0919E-02   9.9091E+00  0.000E+00  0.000E+00  0.000E+00  1.07836E+03  6.368E-01  1.000E+01  2.500E-02  1.212E+00
   1    5    9     4     2    9.9091E+00  1.8158E-01   9.7275E+00  0.000E+00  0.000E+00  0.000E+00  1.07154E+03  6.315E-01  1.000E+01  5.000E-02  1.211E+00
   1    6    8     4     3    9.7275E+00  1.2689E-01   9.6006E+00  0.000E+00  0.000E+00  0.000E+00  1.06381E+03  6.256E-01  1.000E+01  3.500E-02  1.209E+00
   1    6    8     5     1    1.0432E+01  2.2686E-01   1.0205E+01  0.000E+00  0.000E+00  0.000E+00  1.05868E+03  6.790E-01  1.542E+01  6.166E-02  1.226E+00
   1    7    7     5     2    1.0205E+01  2.7894E-01   9.9265E+00  0.000E+00  0.000E+00  0.000E+00  1.05417E+03  6.732E-01  1.519E+01  7.594E-02  1.224E+00
   1    8    7     5     3    9.9265E+00  1.9221E-01   9.7343E+00  0.000E+00  0.000E+00  0.000E+00  1.04992E+03  6.676E-01  1.497E+01  5.241E-02  1.223E+00
   1    8    6     5     4    9.7343E+00  1.3577E-01   9.5985E+00  0.000E+00  0.000E+00  0.000E+00  1.04691E+03  6.637E-01  1.482E+01  3.706E-02  1.221E+00
   1    9    6     6     1    1.4087E+01  2.3167E-01   1.3855E+01  0.000E+00  0.000E+00  0.000E+00  1.04359E+03  8.612E-01  1.200E+01  6.000E-02  1.287E+00
   1   10    7     6     2    1.3855E+01  2.3116E-01   1.3624E+01  0.000E+00  0.000E+00  0.000E+00  1.03903E+03  8.526E-01  1.200E+01  6.000E-02  1.284E+00
   1   11    7     6     3    1.3624E+01  2.3064E-01   1.3393E+01  0.000E+00  0.000E+00  0.000E+00  1.03448E+03  8.440E-01  1.200E+01  6.000E-02  1.281E+00
   1   12    7     6     4    1.3393E+01  2.3012E-01   1.3163E+01  0.000E+00  0.000E+00  0.000E+00  1.02993E+03  8.353E-01  1.200E+01  6.000E-02  1.278E+00
   1   13    7     6     5    1.3163E+01  1.7025E-03   1.3161E+01  0.000E+00  0.000E+00  0.000E+00  1.02674E+03  8.309E-01  1.200E+01  2.400E-02  2.365E-02
   1   14    9     7     1    1.5000E+02  1.3764E+00   1.4862E+02  0.000E+00  0.000E+00  0.000E+00  1.03987E+03  2.288E+00  5.529E+01  5.593E-01  8.203E-01
   1   13    8     7     2    1.4862E+02  1.9628E+00   1.4666E+02  0.000E+00  0.000E+00  0.000E+00  1.03478E+03  2.279E+00  5.525E+01  6.147E-01  1.064E+00
   1   13    7     7     3    1.4666E+02  1.6859E+00   1.4497E+02  0.000E+00  0.000E+00  0.000E+00  1.02969E+03  2.269E+00  5.521E+01  5.584E-01  1.006E+00
   1   13    6     8     1    1.5814E+02  1.0708E+00   1.5707E+02  0.000E+00  0.000E+00  0.000E+00  1.02474E+03  2.870E+00  4.161E+01  4.240E-01  8.418E-01
   1   13    5     8     2    1.5707E+02  3.2820E-01   1.5674E+02  0.000E+00  0.000E+00  0.000E+00  1.01849E+03  2.865E+00  4.154E+01  4.233E-01  2.584E-01
   1   13    4     8     3    1.5674E+02 -1.8909E+00   1.5863E+02  0.000E+00  0.000E+00  0.000E+00  1.01225E+03  2.870E+00  4.162E+01  4.241E+00 -1.486E-01
   1   13    3     8     4    1.5863E+02 -3.3881E+00   1.6202E+02  0.000E+00  0.000E+00  0.000E+00  1.00601E+03  2.888E+00  4.188E+01  4.267E+00 -2.647E-01
   1   13    2     8     5    1.6202E+02 -2.5214E+00   1.6454E+02  0.000E+00  0.000E+00  0.000E+00  9.99783E+02  2.908E+00  4.216E+01  4.297E+00 -1.956E-01
   1   13    1     8     6    1.6454E+02 -1.9725E+00   1.6651E+02  0.000E+00  0.000E+00  0.000E+00  9.94798E+02  2.923E+00  4.238E+01  2.591E+00 -2.537E-01
   1    8    6     9     1    0.0000E+00  0.0000E+00   0.0000E+00  0.000E+00  0.000E+00  0.000E+00  1.07875E+03  0.000E+00  4.000E+00  0.000E+00  1.000E+00
   1    8    5     9     2    0.0000E+00  0.0000E+00   0.0000E+00  0.000E+00  0.000E+00  0.000E+00  1.07825E+03  0.000E+00  4.000E+00  0.000E+00  1.000E+00





UNSATURATED ZONE PACKAGE VOLUMETRIC BUDGET FOR  TIME STEP    30 STRESS PERIOD   23
  ------------------------------------------------------------------------------



     CUMULATIVE VOLUMES      L**3       RATES FOR THIS TIME STEP      L**3/T
     ------------------                 ------------------------

           IN:                                      IN:
           ---                                      ---
        INFILTRATION =   856888288.2052          INFILTRATION =           0.8475

          OUT:                                     OUT:
          ----                                     ----
              UZF ET =   856142820.6611                UZF ET =           0.8475
        UZF RECHARGE =       73224.0000          UZF RECHARGE =       0.0000E+00

            IN - OUT =      672243.5441              IN - OUT =       0.0000E+00

          STORAGE:                                 STORAGE:
          --------                                 --------
      STORAGE CHANGE =      672243.4909        STORAGE CHANGE =       0.0000E+00

 PERCENT DISCREPANCY IS DIFFERENCE BETWEEN IN-OUT MINUS CHANGE IN STORAGE
 DIVIDED BY THE AVERAGE OF IN AND OUT TIMES 100

 PERCENT DISCREPANCY =           0.00     PERCENT DISCREPANCY =           0.00






1
  VOLUMETRIC BUDGET FOR AGRICULTURAL FIELDS AT  END OF TIME STEP   30, STRESS PERIOD  23
  ------------------------------------------------------------------------------

     CUMULATIVE VOLUMES      L**3       RATES FOR THIS TIME STEP      L**3/T
     ------------------                 ------------------------

           IN:                                      IN:
           ---                                      ---
               AG WELLS  =   807776960.0000                 AG WELLS  =           0.0000
      DIVERSION SEGMENTS =           0.0000        DIVERSION SEGMENTS =           0.0000
       IRRIGATION PONDS  =           0.0000         IRRIGATION PONDS  =           0.0000
           GW IRRIGATION =           0.0000             GW IRRIGATION =           0.0000
           SW IRRIGATION =           0.0000             SW IRRIGATION =           0.0000
        SYSTEM LOSSES GW =           0.0000          SYSTEM LOSSES GW =           0.0000
        SYSTEM LOSSES SW =           0.0000          SYSTEM LOSSES SW =           0.0000

                TOTAL IN =   807776960.0000                  TOTAL IN =           0.0000

          OUT:                                     OUT:
          ----                                     ----
               AG WELLS  =           0.0000                 AG WELLS  =           0.0000
      DIVERSION SEGMENTS =           0.0000        DIVERSION SEGMENTS =           0.0000
       IRRIGATION PONDS  =           0.0000         IRRIGATION PONDS  =           0.0000
           GW IRRIGATION =   807776960.0000             GW IRRIGATION =           0.0000
           SW IRRIGATION =           0.0000             SW IRRIGATION =           0.0000
        SYSTEM LOSSES GW =           0.0000          SYSTEM LOSSES GW =           0.0000
        SYSTEM LOSSES SW =           0.0000          SYSTEM LOSSES SW =           0.0000

               TOTAL OUT =   807776960.0000                 TOTAL OUT =           0.0000

                IN - OUT =           0.0000                  IN - OUT =           0.0000

     PERCENT DISCREPANCY =           0.00         PERCENT DISCREPANCY =           0.00



1
  VOLUMETRIC BUDGET FOR ENTIRE MODEL AT END OF TIME STEP   30, STRESS PERIOD  23
  ------------------------------------------------------------------------------

     CUMULATIVE VOLUMES      L**3       RATES FOR THIS TIME STEP      L**3/T
     ------------------                 ------------------------

           IN:                                      IN:
           ---                                      ---
             STORAGE     =  1017220224.0000               STORAGE     =          12.9358
       CONSTANT HEAD     =           0.0000         CONSTANT HEAD     =           0.0000
     HEAD DEP BOUNDS     =    16691033.0000       HEAD DEP BOUNDS     =           0.2885
      STREAM LEAKAGE     =   687313408.0000        STREAM LEAKAGE     =          11.5129
        UZF RECHARGE     =       73223.9531          UZF RECHARGE     =           0.0000
               GW ET     =           0.0000                 GW ET     =           0.0000
     SURFACE LEAKAGE     =           0.0000       SURFACE LEAKAGE     =           0.0000
           AG WELLS      =           0.0000             AG WELLS      =           0.0000

                TOTAL IN =  1721297920.0000                  TOTAL IN =          24.7373

          OUT:                                     OUT:
          ----                                     ----
             STORAGE     =   312403840.0000               STORAGE     =          14.6772
       CONSTANT HEAD     =           0.0000         CONSTANT HEAD     =           0.0000
     HEAD DEP BOUNDS     =    16747388.0000       HEAD DEP BOUNDS     =           0.2872
      STREAM LEAKAGE     =   584370944.0000        STREAM LEAKAGE     =           9.7729
        UZF RECHARGE     =           0.0000          UZF RECHARGE     =           0.0000
               GW ET     =           0.0000                 GW ET     =           0.0000
     SURFACE LEAKAGE     =           0.0000       SURFACE LEAKAGE     =           0.0000
           AG WELLS      =   807776960.0000             AG WELLS      =           0.0000

               TOTAL OUT =  1721299200.0000                 TOTAL OUT =          24.7373

                IN - OUT =       -1280.0000                  IN - OUT =       9.5367E-06

     PERCENT DISCREPANCY =          -0.00         PERCENT DISCREPANCY =           0.00






         TIME SUMMARY AT END OF TIME STEP   30 IN STRESS PERIOD   23
                    SECONDS     MINUTES      HOURS       DAYS        YEARS
                    -----------------------------------------------------------
   TIME STEP LENGTH  87667.      1461.1      24.352      1.0147     2.77799E-03
 STRESS PERIOD TIME 2.63000E+06  43833.      730.56      30.440     8.33397E-02
         TOTAL TIME 5.79467E+07 9.65778E+05  16096.      670.68      1.8362    
1
1
                            STRESS PERIOD NO.   24, LENGTH =   2630000.    
                            -----------------------------------------------

                              NUMBER OF TIME STEPS =    30

                               MULTIPLIER FOR DELT =     1.000

                            INITIAL TIME STEP SIZE =   87666.66    

 REUSING NON-PARAMETER GHB CELLS FROM LAST STRESS PERIOD

      2 GHB CELLS

 REUSING STREAM SEGMENT DATA FROM LAST STRESS PERIOD



            AREAL INFILTRATION RATE
 READING ON UNIT   19 WITH FORMAT: (FREE)              

            1           2           3           4           5           6           7           8           9          10
 ........................................................................................................................
   1   1.0000E-10  2.0000E-10   0.000       0.000       0.000       0.000       0.000       0.000       0.000       0.000    
   2   2.0000E-10  1.0000E-10  2.0000E-10   0.000       0.000      8.0000E-10  8.0000E-10  5.0000E-10   0.000       0.000    
   3    0.000      5.0000E-10  1.0000E-10  1.0000E-10  8.0000E-10  8.0000E-10  5.0000E-10  5.0000E-10   0.000       0.000    
   4   8.0000E-10  5.0000E-10  1.0000E-10  1.0000E-10  1.0000E-10  1.0000E-10  1.0000E-10  1.0000E-10  2.0000E-10   0.000    
   5   8.0000E-10  5.0000E-10  1.0000E-10  1.0000E-10  1.0000E-10  1.0000E-10  1.0000E-10  1.0000E-10  1.0000E-10  1.0000E-10
   6   8.0000E-10  5.0000E-10  5.0000E-10  2.0000E-10  2.0000E-10  1.0000E-10  1.0000E-10  1.0000E-10  1.0000E-10  5.0000E-10
   7   8.0000E-10  5.0000E-10  5.0000E-10  2.0000E-10  2.0000E-10  1.0000E-10  1.0000E-10  2.0000E-10  2.0000E-10   0.000    
   8    0.000      5.0000E-10  5.0000E-10  2.0000E-10  2.0000E-10  1.0000E-10  1.0000E-10  2.0000E-10  5.0000E-10   0.000    
   9    0.000      5.0000E-10  5.0000E-10  2.0000E-10  2.0000E-10  1.0000E-10  1.0000E-10  2.0000E-10  5.0000E-10   0.000    
  10    0.000      5.0000E-10  5.0000E-10  2.0000E-10  2.0000E-10  1.0000E-10  1.0000E-10  2.0000E-10  5.0000E-10  8.0000E-10
  11    0.000      1.0000E-10  1.0000E-10  1.0000E-10  1.0000E-10  1.0000E-10  1.0000E-10  2.0000E-10  5.0000E-10   0.000    
  12   1.0000E-10  1.0000E-10  1.0000E-10  1.0000E-10  1.0000E-10  1.0000E-10  1.0000E-10  1.0000E-10  2.0000E-10   0.000    
  13   1.0000E-10  1.0000E-10  2.0000E-10  2.0000E-10  2.0000E-10  2.0000E-10  2.0000E-10  1.0000E-10  1.0000E-10   0.000    
  14    0.000      2.0000E-10  5.0000E-10  5.0000E-10  5.0000E-10  5.0000E-10  5.0000E-10  2.0000E-10  1.0000E-10   0.000    
  15    0.000       0.000      8.0000E-10  8.0000E-10  8.0000E-10  8.0000E-10   0.000       0.000       0.000       0.000    

                  ET RATE =  5.000000E-10

 USING ET EXTINCTION DEPTH FROM PREVIOUS STRESS PERIOD. CURRENT PERIOD IS:      24

 USING EXTINCTION WATER CONTENT FROM PREVIOUS STRESS PERIOD. CURRENT PERIOD IS:      24

 USING AIR ENTRY PRESSURE FROM PREVIOUS STRESS PERIOD. CURRENT PERIOD IS:      24

 USING ROOT PRESSURE HEAD FROM PREVIOUS STRESS PERIOD. CURRENT PERIOD IS:      24

 USING ROOT ACTIVITY FROM PREVIOUS STRESS PERIOD. CURRENT PERIOD IS:      24

 PROCESSING AG STRESS PERIOD DATA

 READING AG STRESS PERIOD DATA

 READING IRRIGATION SEGMENT

 READING IRRIGATION WELL

 READING SUPPLEMENTAL WELL

 NO IRRPOND OR REUSING IRRPOND DATA FROM LAST STRESS PERIOD

 END PROCESSING AG STRESS PERIOD DATA OPTIONS
 
 SOLVING FOR HEAD 
                                                   Max.-Head-Change                         Max.-Flux-Residual
  Residual-Control   Outer-Iter.   Inner-Iter.     Column Row Layer    Maximum-Head-Change  Column Row Layer    Maximum-Flux-Residual          L2-NORM 
          0                 1           2             4    7     1       0.5150010702E-01       4    7    1         0.2713443898E+01      0.5522780605E+01
          0                 2           2             4    7     1      -0.5009610703E-02       4    7    1        -0.2713481011E+00      0.5522790334E+00
          0                 3           2             4    7     1       0.3411353828E-03       4    7    1         0.1899434016E-01      0.3865942746E-01
          0                 4           1             4    7     1      -0.1357409854E-04       4    7    1        -0.7768697531E-03      0.1581162258E-02

    ------------------------------------------------
       NWT REQUIRED            4 OUTER ITERATIONS 
       AND A TOTAL OF          7 INNER ITERATIONS.
    ------------------------------------------------

 NO OUTPUT CONTROL FOR STRESS PERIOD   24   TIME STEP    1
 
 SOLVING FOR HEAD 
                                                   Max.-Head-Change                         Max.-Flux-Residual
  Residual-Control   Outer-Iter.   Inner-Iter.     Column Row Layer    Maximum-Head-Change  Column Row Layer    Maximum-Flux-Residual          L2-NORM 
          0                 1           2             4    7     1       0.5078608717E-01       4    7    1         0.2675805317E+01      0.5449645492E+01
          0                 2           2             4    7     1      -0.4940154799E-02       4    7    1        -0.2675841583E+00      0.5449650842E+00
          0                 3           2             4    7     1       0.3364057057E-03       4    7    1         0.1873086486E-01      0.3814741570E-01
          0                 4           1             4    7     1      -0.1338590037E-04       4    7    1        -0.7660935994E-03      0.1560228752E-02

    ------------------------------------------------
       NWT REQUIRED            4 OUTER ITERATIONS 
       AND A TOTAL OF          7 INNER ITERATIONS.
    ------------------------------------------------

 NO OUTPUT CONTROL FOR STRESS PERIOD   24   TIME STEP    2
 
 SOLVING FOR HEAD 
                                                   Max.-Head-Change                         Max.-Flux-Residual
  Residual-Control   Outer-Iter.   Inner-Iter.     Column Row Layer    Maximum-Head-Change  Column Row Layer    Maximum-Flux-Residual          L2-NORM 
          0                 1           2             4    7     1       0.5008257311E-01       4    7    1         0.2638712024E+01      0.5377597207E+01
          0                 2           2             4    7     1      -0.4871720836E-02       4    7    1        -0.2638747451E+00      0.5377602570E+00
          0                 3           2             4    7     1       0.3317456182E-03       4    7    1         0.1847120662E-01      0.3764307530E-01
          0                 4           1             4    7     1      -0.1320047056E-04       4    7    1        -0.7554735425E-03      0.1539596656E-02

    ------------------------------------------------
       NWT REQUIRED            4 OUTER ITERATIONS 
       AND A TOTAL OF          7 INNER ITERATIONS.
    ------------------------------------------------

 NO OUTPUT CONTROL FOR STRESS PERIOD   24   TIME STEP    3
 
 SOLVING FOR HEAD 
                                                   Max.-Head-Change                         Max.-Flux-Residual
  Residual-Control   Outer-Iter.   Inner-Iter.     Column Row Layer    Maximum-Head-Change  Column Row Layer    Maximum-Flux-Residual          L2-NORM 
          0                 1           2             4    7     1       0.4938941019E-01       4    7    1         0.2602156167E+01      0.5307151712E+01
          0                 2           2             4    7     1      -0.4804293771E-02       4    7    1        -0.2602190767E+00      0.5307157239E+00
          0                 3           2             4    7     1       0.3271540972E-03       4    7    1         0.1821531051E-01      0.3714997295E-01
          0                 4           1             4    7     1      -0.1301777008E-04       4    7    1        -0.7450073883E-03      0.1519430093E-02

    ------------------------------------------------
       NWT REQUIRED            4 OUTER ITERATIONS 
       AND A TOTAL OF          7 INNER ITERATIONS.
    ------------------------------------------------

 NO OUTPUT CONTROL FOR STRESS PERIOD   24   TIME STEP    4
 
 SOLVING FOR HEAD 
                                                   Max.-Head-Change                         Max.-Flux-Residual
  Residual-Control   Outer-Iter.   Inner-Iter.     Column Row Layer    Maximum-Head-Change  Column Row Layer    Maximum-Flux-Residual          L2-NORM 
          0                 1           2             4    7     1       0.4870656961E-01       4    7    1         0.2566136984E+01      0.5238249622E+01
          0                 2           2             4    7     1      -0.4737870804E-02       4    7    1        -0.2566170766E+00      0.5238255064E+00
          0                 3           2             4    7     1       0.3226309511E-03       4    7    1         0.1796317116E-01      0.3666765651E-01
          0                 4           1             4    7     1      -0.1283778972E-04       4    7    1        -0.7346948767E-03      0.1499702309E-02

    ------------------------------------------------
       NWT REQUIRED            4 OUTER ITERATIONS 
       AND A TOTAL OF          7 INNER ITERATIONS.
    ------------------------------------------------

 NO OUTPUT CONTROL FOR STRESS PERIOD   24   TIME STEP    5
 
 SOLVING FOR HEAD 
                                                   Max.-Head-Change                         Max.-Flux-Residual
  Residual-Control   Outer-Iter.   Inner-Iter.     Column Row Layer    Maximum-Head-Change  Column Row Layer    Maximum-Flux-Residual          L2-NORM 
          0                 1           2             4    7     1       0.4803427392E-01       4    7    1         0.2530667495E+01      0.5170845969E+01
          0                 2           2             4    7     1      -0.4672473586E-02       4    7    1        -0.2530700473E+00      0.5170851509E+00
          0                 3           2             4    7     1       0.3181776545E-03       4    7    1         0.1771487976E-01      0.3619584043E-01
          0                 4           1             4    7     1      -0.1266058900E-04       4    7    1        -0.7245397494E-03      0.1480403837E-02

    ------------------------------------------------
       NWT REQUIRED            4 OUTER ITERATIONS 
       AND A TOTAL OF          7 INNER ITERATIONS.
    ------------------------------------------------

 NO OUTPUT CONTROL FOR STRESS PERIOD   24   TIME STEP    6
 
 SOLVING FOR HEAD 
                                                   Max.-Head-Change                         Max.-Flux-Residual
  Residual-Control   Outer-Iter.   Inner-Iter.     Column Row Layer    Maximum-Head-Change  Column Row Layer    Maximum-Flux-Residual          L2-NORM 
          0                 1           2             4    7     1       0.4737219159E-01       4    7    1         0.2495730213E+01      0.5104887348E+01
          0                 2           2             4    7     1      -0.4608069867E-02       4    7    1        -0.2495762399E+00      0.5104892690E+00
          0                 3           2             4    7     1       0.3137920112E-03       4    7    1         0.1747031387E-01      0.3573412047E-01
          0                 4           1             4    7     1      -0.1248608008E-04       4    7    1        -0.7145369805E-03      0.1461526675E-02

    ------------------------------------------------
       NWT REQUIRED            4 OUTER ITERATIONS 
       AND A TOTAL OF          7 INNER ITERATIONS.
    ------------------------------------------------

 NO OUTPUT CONTROL FOR STRESS PERIOD   24   TIME STEP    7
 
 SOLVING FOR HEAD 
                                                   Max.-Head-Change                         Max.-Flux-Residual
  Residual-Control   Outer-Iter.   Inner-Iter.     Column Row Layer    Maximum-Head-Change  Column Row Layer    Maximum-Flux-Residual          L2-NORM 
          0                 1           2             4    7     1       0.4672052558E-01       4    7    1         0.2461336979E+01      0.5040336928E+01
          0                 2           2             4    7     1      -0.4544679390E-02       4    7    1        -0.2461368386E+00      0.5040342245E+00
          0                 3           2             4    7     1       0.3094753660E-03       4    7    1         0.1722955641E-01      0.3528228408E-01
          0                 4           1             4    7     1      -0.1231431650E-04       4    7    1        -0.7046899932E-03      0.1443044214E-02

    ------------------------------------------------
       NWT REQUIRED            4 OUTER ITERATIONS 
       AND A TOTAL OF          7 INNER ITERATIONS.
    ------------------------------------------------

 NO OUTPUT CONTROL FOR STRESS PERIOD   24   TIME STEP    8
 
 SOLVING FOR HEAD 
                                                   Max.-Head-Change                         Max.-Flux-Residual
  Residual-Control   Outer-Iter.   Inner-Iter.     Column Row Layer    Maximum-Head-Change  Column Row Layer    Maximum-Flux-Residual          L2-NORM 
          0                 1           2             4    7     1       0.4607905531E-01       4    7    1         0.2427476543E+01      0.4977143319E+01
          0                 2           2             4    7     1      -0.4482280702E-02       4    7    1        -0.2427507184E+00      0.4977148518E+00
          0                 3           2             4    7     1       0.3052262578E-03       4    7    1         0.1699252864E-01      0.3483993032E-01
          0                 4           1             4    7     1      -0.1214524033E-04       4    7    1        -0.6949955211E-03      0.1424945195E-02

    ------------------------------------------------
       NWT REQUIRED            4 OUTER ITERATIONS 
       AND A TOTAL OF          7 INNER ITERATIONS.
    ------------------------------------------------

 NO OUTPUT CONTROL FOR STRESS PERIOD   24   TIME STEP    9
 
 SOLVING FOR HEAD 
                                                   Max.-Head-Change                         Max.-Flux-Residual
  Residual-Control   Outer-Iter.   Inner-Iter.     Column Row Layer    Maximum-Head-Change  Column Row Layer    Maximum-Flux-Residual          L2-NORM 
          0                 1           2             4    7     1       0.4544769681E-01       4    7    1         0.2394144725E+01      0.4915269032E+01
          0                 2           2             4    7     1      -0.4420865634E-02       4    7    1        -0.2394174615E+00      0.4915274171E+00
          0                 3           2             4    7     1       0.3010441299E-03       4    7    1         0.1675920126E-01      0.3440681685E-01
          0                 4           1             4    7     1      -0.1197882983E-04       4    7    1        -0.6854524179E-03      0.1407233433E-02

    ------------------------------------------------
       NWT REQUIRED            4 OUTER ITERATIONS 
       AND A TOTAL OF          7 INNER ITERATIONS.
    ------------------------------------------------

 NO OUTPUT CONTROL FOR STRESS PERIOD   24   TIME STEP   10
 
 SOLVING FOR HEAD 
                                                   Max.-Head-Change                         Max.-Flux-Residual
  Residual-Control   Outer-Iter.   Inner-Iter.     Column Row Layer    Maximum-Head-Change  Column Row Layer    Maximum-Flux-Residual          L2-NORM 
          0                 1           2             4    7     1       0.4482648982E-01       4    7    1         0.2361344435E+01      0.4854673874E+01
          0                 2           2             4    7     1      -0.4360438051E-02       4    7    1        -0.2361373587E+00      0.4854678695E+00
          0                 3           2             4    7     1       0.2969292462E-03       4    7    1         0.1652959467E-01      0.3398264791E-01
          0                 4           1             4    7     1      -0.1181509444E-04       4    7    1        -0.6760614865E-03      0.1389895599E-02

    ------------------------------------------------
       NWT REQUIRED            4 OUTER ITERATIONS 
       AND A TOTAL OF          7 INNER ITERATIONS.
    ------------------------------------------------

 NO OUTPUT CONTROL FOR STRESS PERIOD   24   TIME STEP   11
 
 SOLVING FOR HEAD 
                                                   Max.-Head-Change                         Max.-Flux-Residual
  Residual-Control   Outer-Iter.   Inner-Iter.     Column Row Layer    Maximum-Head-Change  Column Row Layer    Maximum-Flux-Residual          L2-NORM 
          0                 1           2             4    7     1       0.4421532376E-01       4    7    1         0.2329070472E+01      0.4795321922E+01
          0                 2           2             4    7     1      -0.4300987198E-02       4    7    1        -0.2329098902E+00      0.4795326610E+00
          0                 3           2             4    7     1       0.2928808738E-03       4    7    1         0.1630367245E-01      0.3356718884E-01
          0                 4           1             4    7     1      -0.1165400606E-04       4    7    1        -0.6668212582E-03      0.1372898649E-02

    ------------------------------------------------
       NWT REQUIRED            4 OUTER ITERATIONS 
       AND A TOTAL OF          7 INNER ITERATIONS.
    ------------------------------------------------

 NO OUTPUT CONTROL FOR STRESS PERIOD   24   TIME STEP   12
 
 SOLVING FOR HEAD 
                                                   Max.-Head-Change                         Max.-Flux-Residual
  Residual-Control   Outer-Iter.   Inner-Iter.     Column Row Layer    Maximum-Head-Change  Column Row Layer    Maximum-Flux-Residual          L2-NORM 
          0                 1           2             4    7     1       0.4361395265E-01       4    7    1         0.2297309842E+01      0.4737165192E+01
          0                 2           2             4    7     1      -0.4242489149E-02       4    7    1        -0.2297337564E+00      0.4737169637E+00
          0                 3           2             4    7     1       0.2888973839E-03       4    7    1         0.1608134367E-01      0.3316010065E-01
          0                 4           1             4    7     1      -0.1149549907E-04       4    7    1        -0.6577279985E-03      0.1356375288E-02

    ------------------------------------------------
       NWT REQUIRED            4 OUTER ITERATIONS 
       AND A TOTAL OF          7 INNER ITERATIONS.
    ------------------------------------------------

 NO OUTPUT CONTROL FOR STRESS PERIOD   24   TIME STEP   13
 
 SOLVING FOR HEAD 
                                                   Max.-Head-Change                         Max.-Flux-Residual
  Residual-Control   Outer-Iter.   Inner-Iter.     Column Row Layer    Maximum-Head-Change  Column Row Layer    Maximum-Flux-Residual          L2-NORM 
          0                 1           2             4    7     1       0.4302253066E-01       4    7    1         0.2266071578E+01      0.4680184128E+01
          0                 2           2             4    7     1      -0.4184958899E-02       4    7    1        -0.2266098607E+00      0.4680188287E+00
          0                 3           2             4    7     1       0.2849797968E-03       4    7    1         0.1586267152E-01      0.3276120597E-01
          0                 4           1             4    7     1      -0.1133961446E-04       4    7    1        -0.6487842836E-03      0.1339928562E-02

    ------------------------------------------------
       NWT REQUIRED            4 OUTER ITERATIONS 
       AND A TOTAL OF          7 INNER ITERATIONS.
    ------------------------------------------------

 NO OUTPUT CONTROL FOR STRESS PERIOD   24   TIME STEP   14
 
 SOLVING FOR HEAD 
                                                   Max.-Head-Change                         Max.-Flux-Residual
  Residual-Control   Outer-Iter.   Inner-Iter.     Column Row Layer    Maximum-Head-Change  Column Row Layer    Maximum-Flux-Residual          L2-NORM 
          0                 1           2             4    7     1       0.4244079937E-01       4    7    1         0.2235341887E+01      0.4624339043E+01
          0                 2           2             4    7     1      -0.4128371312E-02       4    7    1        -0.2235368238E+00      0.4624342933E+00
          0                 3           2             4    7     1       0.2811264020E-03       4    7    1         0.1564755950E-01      0.3237026826E-01
          0                 4           1             4    7     1      -0.1118628441E-04       4    7    1        -0.6399861909E-03      0.1323915484E-02

    ------------------------------------------------
       NWT REQUIRED            4 OUTER ITERATIONS 
       AND A TOTAL OF          7 INNER ITERATIONS.
    ------------------------------------------------

 NO OUTPUT CONTROL FOR STRESS PERIOD   24   TIME STEP   15
 
 SOLVING FOR HEAD 
                                                   Max.-Head-Change                         Max.-Flux-Residual
  Residual-Control   Outer-Iter.   Inner-Iter.     Column Row Layer    Maximum-Head-Change  Column Row Layer    Maximum-Flux-Residual          L2-NORM 
          0                 1           2             4    7     1       0.4186862831E-01       4    7    1         0.2205114633E+01      0.4569592915E+01
          0                 2           2             4    7     1      -0.4072713696E-02       4    7    1        -0.2205140321E+00      0.4569596541E+00
          0                 3           2             4    7     1       0.2773363343E-03       4    7    1         0.1543596462E-01      0.3198707544E-01
          0                 4           1             4    7     1      -0.1103547439E-04       4    7    1        -0.6313319568E-03      0.1308274022E-02

    ------------------------------------------------
       NWT REQUIRED            4 OUTER ITERATIONS 
       AND A TOTAL OF          7 INNER ITERATIONS.
    ------------------------------------------------

 NO OUTPUT CONTROL FOR STRESS PERIOD   24   TIME STEP   16
 
 SOLVING FOR HEAD 
                                                   Max.-Head-Change                         Max.-Flux-Residual
  Residual-Control   Outer-Iter.   Inner-Iter.     Column Row Layer    Maximum-Head-Change  Column Row Layer    Maximum-Flux-Residual          L2-NORM 
          0                 1           2             4    7     1       0.4130589108E-01       4    7    1         0.2175383050E+01      0.4515921917E+01
          0                 2           2             4    7     1      -0.4017973758E-02       4    7    1        -0.2175408091E+00      0.4515925251E+00
          0                 3           2             4    7     1       0.2736087568E-03       4    7    1         0.1522783953E-01      0.3161136240E-01
          0                 4           1             4    7     1      -0.1088715021E-04       4    7    1        -0.6228196241E-03      0.1292897424E-02

    ------------------------------------------------
       NWT REQUIRED            4 OUTER ITERATIONS 
       AND A TOTAL OF          7 INNER ITERATIONS.
    ------------------------------------------------

 NO OUTPUT CONTROL FOR STRESS PERIOD   24   TIME STEP   17
 
 SOLVING FOR HEAD 
                                                   Max.-Head-Change                         Max.-Flux-Residual
  Residual-Control   Outer-Iter.   Inner-Iter.     Column Row Layer    Maximum-Head-Change  Column Row Layer    Maximum-Flux-Residual          L2-NORM 
          0                 1           2             4    7     1       0.4075272150E-01       4    7    1         0.2146155118E+01      0.4463297099E+01
          0                 2           2             4    7     1      -0.3964164511E-02       4    7    1        -0.2146179526E+00      0.4463300329E+00
          0                 3           2             4    7     1       0.2699445553E-03       4    7    1         0.1502324007E-01      0.3124300907E-01
          0                 4           1             4    7     1      -0.1074134824E-04       4    7    1        -0.6144514828E-03      0.1277833182E-02

    ------------------------------------------------
       NWT REQUIRED            4 OUTER ITERATIONS 
       AND A TOTAL OF          7 INNER ITERATIONS.
    ------------------------------------------------

 NO OUTPUT CONTROL FOR STRESS PERIOD   24   TIME STEP   18
 
 SOLVING FOR HEAD 
                                                   Max.-Head-Change                         Max.-Flux-Residual
  Residual-Control   Outer-Iter.   Inner-Iter.     Column Row Layer    Maximum-Head-Change  Column Row Layer    Maximum-Flux-Residual          L2-NORM 
          0                 1           2             4    7     1       0.4020870501E-01       4    7    1         0.2117408714E+01      0.4411682918E+01
          0                 2           2             4    7     1      -0.3911245633E-02       4    7    1        -0.2117432503E+00      0.4411685791E+00
          0                 3           2             4    7     1       0.2663409850E-03       4    7    1         0.1482201141E-01      0.3088170222E-01
          0                 4           1             4    7     1      -0.1059795877E-04       4    7    1        -0.6062212269E-03      0.1263052300E-02

    ------------------------------------------------
       NWT REQUIRED            4 OUTER ITERATIONS 
       AND A TOTAL OF          7 INNER ITERATIONS.
    ------------------------------------------------

 NO OUTPUT CONTROL FOR STRESS PERIOD   24   TIME STEP   19
 
 SOLVING FOR HEAD 
                                                   Max.-Head-Change                         Max.-Flux-Residual
  Residual-Control   Outer-Iter.   Inner-Iter.     Column Row Layer    Maximum-Head-Change  Column Row Layer    Maximum-Flux-Residual          L2-NORM 
          0                 1           2             4    7     1       0.3967370707E-01       4    7    1         0.2089136874E+01      0.4361052046E+01
          0                 2           2             4    7     1      -0.3859204035E-02       4    7    1        -0.2089160059E+00      0.4361054698E+00
          0                 3           2             4    7     1       0.2627971533E-03       4    7    1         0.1462410478E-01      0.3052728405E-01
          0                 4           1             4    7     1      -0.1045694634E-04       4    7    1        -0.5981268162E-03      0.1248561431E-02

    ------------------------------------------------
       NWT REQUIRED            4 OUTER ITERATIONS 
       AND A TOTAL OF          7 INNER ITERATIONS.
    ------------------------------------------------

 NO OUTPUT CONTROL FOR STRESS PERIOD   24   TIME STEP   20
 
 SOLVING FOR HEAD 
                                                   Max.-Head-Change                         Max.-Flux-Residual
  Residual-Control   Outer-Iter.   Inner-Iter.     Column Row Layer    Maximum-Head-Change  Column Row Layer    Maximum-Flux-Residual          L2-NORM 
          0                 1           2             4    7     1       0.3914785695E-01       4    7    1         0.2061347155E+01      0.4311382157E+01
          0                 2           2             4    7     1      -0.3808052291E-02       4    7    1        -0.2061369752E+00      0.4311384497E+00
          0                 3           2             4    7     1       0.2593139177E-03       4    7    1         0.1442957311E-01      0.3017959845E-01
          0                 4           1             4    7     1      -0.1031834492E-04       4    7    1        -0.5901704544E-03      0.1234306271E-02

    ------------------------------------------------
       NWT REQUIRED            4 OUTER ITERATIONS 
       AND A TOTAL OF          7 INNER ITERATIONS.
    ------------------------------------------------

 NO OUTPUT CONTROL FOR STRESS PERIOD   24   TIME STEP   21
 
 SOLVING FOR HEAD 
                                                   Max.-Head-Change                         Max.-Flux-Residual
  Residual-Control   Outer-Iter.   Inner-Iter.     Column Row Layer    Maximum-Head-Change  Column Row Layer    Maximum-Flux-Residual          L2-NORM 
          0                 1           2             4    7     1       0.3863087037E-01       4    7    1         0.2034024462E+01      0.4262653857E+01
          0                 2           2             4    7     1      -0.3757762750E-02       4    7    1        -0.2034046484E+00      0.4262657688E+00
          0                 3           2             4    7     1       0.2558893950E-03       4    7    1         0.1423831071E-01      0.2983849516E-01
          0                 4           1             4    7     1      -0.1018208012E-04       4    7    1        -0.5823478214E-03      0.1220389104E-02

    ------------------------------------------------
       NWT REQUIRED            4 OUTER ITERATIONS 
       AND A TOTAL OF          7 INNER ITERATIONS.
    ------------------------------------------------

 NO OUTPUT CONTROL FOR STRESS PERIOD   24   TIME STEP   22
 
 SOLVING FOR HEAD 
                                                   Max.-Head-Change                         Max.-Flux-Residual
  Residual-Control   Outer-Iter.   Inner-Iter.     Column Row Layer    Maximum-Head-Change  Column Row Layer    Maximum-Flux-Residual          L2-NORM 
          0                 1           2             4    7     1       0.3812273537E-01       4    7    1         0.2007168591E+01      0.4214836410E+01
          0                 2           2             4    7     1      -0.3708334248E-02       4    7    1        -0.2007190052E+00      0.4214838013E+00
          0                 3           2             4    7     1       0.2525235051E-03       4    7    1         0.1405031613E-01      0.2950375275E-01
          0                 4           1             4    7     1      -0.1004814792E-04       4    7    1        -0.5746588192E-03      0.1206691956E-02

    ------------------------------------------------
       NWT REQUIRED            4 OUTER ITERATIONS 
       AND A TOTAL OF          7 INNER ITERATIONS.
    ------------------------------------------------

 NO OUTPUT CONTROL FOR STRESS PERIOD   24   TIME STEP   23
 
 SOLVING FOR HEAD 
                                                   Max.-Head-Change                         Max.-Flux-Residual
  Residual-Control   Outer-Iter.   Inner-Iter.     Column Row Layer    Maximum-Head-Change  Column Row Layer    Maximum-Flux-Residual          L2-NORM 
          0                 1           2             4    7     1       0.3762316505E-01       4    7    1         0.1980764384E+01      0.4167893977E+01
          0                 2           2             4    7     1      -0.3659738875E-02       4    7    1        -0.1980785299E+00      0.4167895335E+00
          0                 3           2             4    7     1       0.2492143482E-03       4    7    1         0.1386548329E-01      0.2917516682E-01
          0                 4           1             4    7     1      -0.9916473491E-05       4    7    1        -0.5670991454E-03      0.1193267652E-02

    ------------------------------------------------
       NWT REQUIRED            4 OUTER ITERATIONS 
       AND A TOTAL OF          7 INNER ITERATIONS.
    ------------------------------------------------

 NO OUTPUT CONTROL FOR STRESS PERIOD   24   TIME STEP   24
 
 SOLVING FOR HEAD 
                                                   Max.-Head-Change                         Max.-Flux-Residual
  Residual-Control   Outer-Iter.   Inner-Iter.     Column Row Layer    Maximum-Head-Change  Column Row Layer    Maximum-Flux-Residual          L2-NORM 
          0                 1           2             4    7     1       0.3713201487E-01       4    7    1         0.1954804235E+01      0.4121820599E+01
          0                 2           2             4    7     1      -0.3611962572E-02       4    7    1        -0.1954824617E+00      0.4121821805E+00
          0                 3           2             4    7     1       0.2459609667E-03       4    7    1         0.1368375894E-01      0.2885266497E-01
          0                 4           1             4    7     1      -0.9787018491E-05       4    7    1        -0.5596666099E-03      0.1180065240E-02

    ------------------------------------------------
       NWT REQUIRED            4 OUTER ITERATIONS 
       AND A TOTAL OF          7 INNER ITERATIONS.
    ------------------------------------------------

 NO OUTPUT CONTROL FOR STRESS PERIOD   24   TIME STEP   25
 
 SOLVING FOR HEAD 
                                                   Max.-Head-Change                         Max.-Flux-Residual
  Residual-Control   Outer-Iter.   Inner-Iter.     Column Row Layer    Maximum-Head-Change  Column Row Layer    Maximum-Flux-Residual          L2-NORM 
          0                 1           2             4    7     1       0.3664927429E-01       4    7    1         0.1929287920E+01      0.4076590031E+01
          0                 2           2             4    7     1      -0.3565004314E-02       4    7    1        -0.1929307782E+00      0.4076590966E+00
          0                 3           2             4    7     1       0.2427632907E-03       4    7    1         0.1350514151E-01      0.2853603847E-01
          0                 4           1             4    7     1      -0.9659779812E-05       4    7    1        -0.5523611369E-03      0.1167116219E-02

    ------------------------------------------------
       NWT REQUIRED            4 OUTER ITERATIONS 
       AND A TOTAL OF          7 INNER ITERATIONS.
    ------------------------------------------------

 NO OUTPUT CONTROL FOR STRESS PERIOD   24   TIME STEP   26
 
 SOLVING FOR HEAD 
                                                   Max.-Head-Change                         Max.-Flux-Residual
  Residual-Control   Outer-Iter.   Inner-Iter.     Column Row Layer    Maximum-Head-Change  Column Row Layer    Maximum-Flux-Residual          L2-NORM 
          0                 1           2             4    7     1       0.3617479339E-01       4    7    1         0.1904207623E+01      0.4032181534E+01
          0                 2           2             4    7     1      -0.3518849517E-02       4    7    1        -0.1904226979E+00      0.4032181972E+00
          0                 3           2             4    7     1       0.2396203278E-03       4    7    1         0.1332957631E-01      0.2822517051E-01
          0                 4           1             4    7     1      -0.9534718542E-05       4    7    1        -0.5451805143E-03      0.1154406423E-02

    ------------------------------------------------
       NWT REQUIRED            4 OUTER ITERATIONS 
       AND A TOTAL OF          7 INNER ITERATIONS.
    ------------------------------------------------

 NO OUTPUT CONTROL FOR STRESS PERIOD   24   TIME STEP   27
 
 SOLVING FOR HEAD 
                                                   Max.-Head-Change                         Max.-Flux-Residual
  Residual-Control   Outer-Iter.   Inner-Iter.     Column Row Layer    Maximum-Head-Change  Column Row Layer    Maximum-Flux-Residual          L2-NORM 
          0                 1           2             4    7     1       0.3570842329E-01       4    7    1         0.1879555571E+01      0.3988571125E+01
          0                 2           2             4    7     1      -0.3473483698E-02       4    7    1        -0.1879574435E+00      0.3988571311E+00
          0                 3           2             4    7     1       0.2365310907E-03       4    7    1         0.1315700887E-01      0.2791989653E-01
          0                 4           1             4    7     1      -0.9411795076E-05       4    7    1        -0.5381225060E-03      0.1141916553E-02

    ------------------------------------------------
       NWT REQUIRED            4 OUTER ITERATIONS 
       AND A TOTAL OF          7 INNER ITERATIONS.
    ------------------------------------------------

 NO OUTPUT CONTROL FOR STRESS PERIOD   24   TIME STEP   28
 
 SOLVING FOR HEAD 
                                                   Max.-Head-Change                         Max.-Flux-Residual
  Residual-Control   Outer-Iter.   Inner-Iter.     Column Row Layer    Maximum-Head-Change  Column Row Layer    Maximum-Flux-Residual          L2-NORM 
          0                 1           2             4    7     1       0.3525001334E-01       4    7    1         0.1855324046E+01      0.3945742663E+01
          0                 2           2             4    7     1      -0.3428892205E-02       4    7    1        -0.1855342429E+00      0.3945742500E+00
          0                 3           2             4    7     1       0.2334945825E-03       4    7    1         0.1298738524E-01      0.2762009782E-01
          0                 4           1             4    7     1      -0.9290969235E-05       4    7    1        -0.5311848799E-03      0.1129654923E-02

    ------------------------------------------------
       NWT REQUIRED            4 OUTER ITERATIONS 
       AND A TOTAL OF          7 INNER ITERATIONS.
    ------------------------------------------------

 NO OUTPUT CONTROL FOR STRESS PERIOD   24   TIME STEP   29
 
 SOLVING FOR HEAD 
                                                   Max.-Head-Change                         Max.-Flux-Residual
  Residual-Control   Outer-Iter.   Inner-Iter.     Column Row Layer    Maximum-Head-Change  Column Row Layer    Maximum-Flux-Residual          L2-NORM 
          0                 1           2             4    7     1       0.3479941320E-01       4    7    1         0.1831505236E+01      0.3903666274E+01
          0                 2           2             4    7     1      -0.3385060411E-02       4    7    1        -0.1831523152E+00      0.3903665891E+00
          0                 3           2             4    7     1       0.2305098064E-03       4    7    1         0.1282065066E-01      0.2732555306E-01
          0                 4           1             4    7     1      -0.9172202221E-05       4    7    1        -0.5243654273E-03      0.1117610250E-02

    ------------------------------------------------
       NWT REQUIRED            4 OUTER ITERATIONS 
       AND A TOTAL OF          7 INNER ITERATIONS.
    ------------------------------------------------

 NO OUTPUT CONTROL FOR STRESS PERIOD   24   TIME STEP   30



 STREAM LISTING     PERIOD     24   STEP       30

 LAYER ROW COL. STREAM  RCH.  FLOW INTO     FLOW TO   FLOW OUT OF   OVRLND.     DIRECT     STREAM       STREAM     STREAM     STREAM   STREAMBED  STREAMBED
                SEG.NO.  NO.  STRM. RCH.    AQUIFER    STRM. RCH.    RUNOFF     PRECIP       ET          HEAD       DEPTH      WIDTH   CONDCTNC.   GRADIENT

   1    1    1     1     1    7.8751E+00  1.2805E-01   7.7471E+00  0.000E+00  0.000E+00  0.000E+00  1.09388E+03  8.295E-01  7.430E+00  3.344E-02  1.276E+00
   1    2    2     1     2    7.7471E+00  1.9663E-01   7.5504E+00  0.000E+00  0.000E+00  0.000E+00  1.08888E+03  8.238E-01  7.346E+00  5.142E-02  1.275E+00
   1    3    3     1     3    7.5504E+00  1.6607E-01   7.3844E+00  0.000E+00  0.000E+00  0.000E+00  1.08324E+03  8.173E-01  7.251E+00  4.350E-02  1.272E+00
   1    3    4     1     4    7.3844E+00  1.5159E-01   7.2328E+00  0.000E+00  0.000E+00  0.000E+00  1.07822E+03  8.115E-01  7.166E+00  3.977E-02  1.270E+00
   1    4    5     2     1    5.2328E+00  2.7028E-01   4.9625E+00  0.000E+00  0.000E+00  0.000E+00  1.07240E+03  4.651E-01  1.200E+01  7.800E-02  1.155E+00
   1    5    6     2     2    4.9625E+00  2.0712E-01   4.7554E+00  0.000E+00  0.000E+00  0.000E+00  1.06696E+03  4.519E-01  1.200E+01  6.000E-02  1.151E+00
   1    6    6     2     3    4.7554E+00  2.0642E-01   4.5490E+00  0.000E+00  0.000E+00  0.000E+00  1.06223E+03  4.403E-01  1.200E+01  6.000E-02  1.147E+00
   1    7    6     2     4    4.5490E+00  2.0571E-01   4.3433E+00  0.000E+00  0.000E+00  0.000E+00  1.05750E+03  4.285E-01  1.200E+01  6.000E-02  1.143E+00
   1    8    6     2     5    4.3433E+00  2.0499E-01   4.1383E+00  0.000E+00  0.000E+00  0.000E+00  1.05278E+03  4.165E-01  1.200E+01  6.000E-02  1.139E+00
   1    3    5     3     1    2.0000E+00  2.8252E-01   1.7175E+00  0.000E+00  0.000E+00  0.000E+00  1.07555E+03  1.909E+00  9.636E+00  7.227E-02  1.955E+00
   1    3    6     3     2    1.7175E+00  2.4905E-01   1.4684E+00  0.000E+00  0.000E+00  0.000E+00  1.07264E+03  1.727E+00  8.909E+00  6.682E-02  1.864E+00
   1    3    7     3     3    1.4684E+00  1.9718E-01   1.2712E+00  0.000E+00  0.000E+00  0.000E+00  1.06987E+03  1.555E+00  8.218E+00  5.547E-02  1.777E+00
   1    4    8     3     4    1.2712E+00  2.2567E-01   1.0456E+00  0.000E+00  0.000E+00  0.000E+00  1.06682E+03  1.364E+00  7.455E+00  6.709E-02  1.682E+00
   1    5    8     3     5    1.0456E+00  1.5790E-01   8.8768E-01  0.000E+00  0.000E+00  0.000E+00  1.06362E+03  1.164E+00  6.655E+00  4.991E-02  1.582E+00
   1    6    8     3     6    8.8768E-01  5.5980E-02   8.3170E-01  0.000E+00  0.000E+00  0.000E+00  1.06158E+03  1.036E+00  6.145E+00  1.844E-02  1.518E+00
   1    5   10     4     1    1.0000E+01  9.0919E-02   9.9091E+00  0.000E+00  0.000E+00  0.000E+00  1.07836E+03  6.368E-01  1.000E+01  2.500E-02  1.212E+00
   1    5    9     4     2    9.9091E+00  1.8158E-01   9.7275E+00  0.000E+00  0.000E+00  0.000E+00  1.07154E+03  6.315E-01  1.000E+01  5.000E-02  1.211E+00
   1    6    8     4     3    9.7275E+00  1.2689E-01   9.6006E+00  0.000E+00  0.000E+00  0.000E+00  1.06381E+03  6.256E-01  1.000E+01  3.500E-02  1.209E+00
   1    6    8     5     1    1.0432E+01  2.2686E-01   1.0205E+01  0.000E+00  0.000E+00  0.000E+00  1.05868E+03  6.790E-01  1.542E+01  6.166E-02  1.226E+00
   1    7    7     5     2    1.0205E+01  2.7894E-01   9.9265E+00  0.000E+00  0.000E+00  0.000E+00  1.05417E+03  6.732E-01  1.519E+01  7.594E-02  1.224E+00
   1    8    7     5     3    9.9265E+00  1.9221E-01   9.7343E+00  0.000E+00  0.000E+00  0.000E+00  1.04992E+03  6.676E-01  1.497E+01  5.241E-02  1.223E+00
   1    8    6     5     4    9.7343E+00  1.3577E-01   9.5985E+00  0.000E+00  0.000E+00  0.000E+00  1.04691E+03  6.637E-01  1.482E+01  3.706E-02  1.221E+00
   1    9    6     6     1    1.3737E+01  2.3089E-01   1.3506E+01  0.000E+00  0.000E+00  0.000E+00  1.04358E+03  8.482E-01  1.200E+01  6.000E-02  1.283E+00
   1   10    7     6     2    1.3506E+01  2.3037E-01   1.3276E+01  0.000E+00  0.000E+00  0.000E+00  1.03902E+03  8.396E-01  1.200E+01  6.000E-02  1.280E+00
   1   11    7     6     3    1.3276E+01  2.2985E-01   1.3046E+01  0.000E+00  0.000E+00  0.000E+00  1.03447E+03  8.309E-01  1.200E+01  6.000E-02  1.277E+00
   1   12    7     6     4    1.3046E+01  2.2933E-01   1.2816E+01  0.000E+00  0.000E+00  0.000E+00  1.02991E+03  8.221E-01  1.200E+01  6.000E-02  1.274E+00
   1   13    7     6     5    1.2816E+01  1.9082E-03   1.2814E+01  0.000E+00  0.000E+00  0.000E+00  1.02673E+03  8.177E-01  1.200E+01  2.400E-02  2.650E-02
   1   14    9     7     1    1.5000E+02  1.3777E+00   1.4862E+02  0.000E+00  0.000E+00  0.000E+00  1.03987E+03  2.288E+00  5.529E+01  5.593E-01  8.211E-01
   1   13    8     7     2    1.4862E+02  1.9681E+00   1.4665E+02  0.000E+00  0.000E+00  0.000E+00  1.03478E+03  2.279E+00  5.525E+01  6.147E-01  1.067E+00
   1   13    7     7     3    1.4665E+02  1.6980E+00   1.4496E+02  0.000E+00  0.000E+00  0.000E+00  1.02969E+03  2.269E+00  5.521E+01  5.584E-01  1.014E+00
   1   13    6     8     1    1.5777E+02  1.0829E+00   1.5669E+02  0.000E+00  0.000E+00  0.000E+00  1.02474E+03  2.867E+00  4.157E+01  4.236E-01  8.521E-01
   1   13    5     8     2    1.5669E+02  3.4182E-01   1.5635E+02  0.000E+00  0.000E+00  0.000E+00  1.01849E+03  2.862E+00  4.150E+01  4.229E-01  2.694E-01
   1   13    4     8     3    1.5635E+02 -1.8391E+00   1.5819E+02  0.000E+00  0.000E+00  0.000E+00  1.01224E+03  2.867E+00  4.158E+01  4.237E+00 -1.447E-01
   1   13    3     8     4    1.5819E+02 -3.3642E+00   1.6155E+02  0.000E+00  0.000E+00  0.000E+00  1.00601E+03  2.885E+00  4.183E+01  4.263E+00 -2.631E-01
   1   13    2     8     5    1.6155E+02 -2.5147E+00   1.6406E+02  0.000E+00  0.000E+00  0.000E+00  9.99780E+02  2.905E+00  4.212E+01  4.292E+00 -1.953E-01
   1   13    1     8     6    1.6406E+02 -1.9676E+00   1.6603E+02  0.000E+00  0.000E+00  0.000E+00  9.94795E+02  2.920E+00  4.233E+01  2.588E+00 -2.534E-01
   1    8    6     9     1    0.0000E+00  0.0000E+00   0.0000E+00  0.000E+00  0.000E+00  0.000E+00  1.07875E+03  0.000E+00  4.000E+00  0.000E+00  1.000E+00
   1    8    5     9     2    0.0000E+00  0.0000E+00   0.0000E+00  0.000E+00  0.000E+00  0.000E+00  1.07825E+03  0.000E+00  4.000E+00  0.000E+00  1.000E+00





UNSATURATED ZONE PACKAGE VOLUMETRIC BUDGET FOR  TIME STEP    30 STRESS PERIOD   24
  ------------------------------------------------------------------------------



     CUMULATIVE VOLUMES      L**3       RATES FOR THIS TIME STEP      L**3/T
     ------------------                 ------------------------

           IN:                                      IN:
           ---                                      ---
        INFILTRATION =   859117213.0779          INFILTRATION =           0.8475

          OUT:                                     OUT:
          ----                                     ----
              UZF ET =   858115320.7716                UZF ET =           0.7500
        UZF RECHARGE =       73224.0000          UZF RECHARGE =       0.0000E+00

            IN - OUT =      928668.3063              IN - OUT =       9.7500E-02

          STORAGE:                                 STORAGE:
          --------                                 --------
      STORAGE CHANGE =      928668.2750        STORAGE CHANGE =       9.7500E-02

 PERCENT DISCREPANCY IS DIFFERENCE BETWEEN IN-OUT MINUS CHANGE IN STORAGE
 DIVIDED BY THE AVERAGE OF IN AND OUT TIMES 100

 PERCENT DISCREPANCY =           0.00     PERCENT DISCREPANCY =           0.00






1
  VOLUMETRIC BUDGET FOR AGRICULTURAL FIELDS AT  END OF TIME STEP   30, STRESS PERIOD  24
  ------------------------------------------------------------------------------

     CUMULATIVE VOLUMES      L**3       RATES FOR THIS TIME STEP      L**3/T
     ------------------                 ------------------------

           IN:                                      IN:
           ---                                      ---
               AG WELLS  =   807776960.0000                 AG WELLS  =           0.0000
      DIVERSION SEGMENTS =           0.0000        DIVERSION SEGMENTS =           0.0000
       IRRIGATION PONDS  =           0.0000         IRRIGATION PONDS  =           0.0000
           GW IRRIGATION =           0.0000             GW IRRIGATION =           0.0000
           SW IRRIGATION =           0.0000             SW IRRIGATION =           0.0000
        SYSTEM LOSSES GW =           0.0000          SYSTEM LOSSES GW =           0.0000
        SYSTEM LOSSES SW =           0.0000          SYSTEM LOSSES SW =           0.0000

                TOTAL IN =   807776960.0000                  TOTAL IN =           0.0000

          OUT:                                     OUT:
          ----                                     ----
               AG WELLS  =           0.0000                 AG WELLS  =           0.0000
      DIVERSION SEGMENTS =           0.0000        DIVERSION SEGMENTS =           0.0000
       IRRIGATION PONDS  =           0.0000         IRRIGATION PONDS  =           0.0000
           GW IRRIGATION =   807776960.0000             GW IRRIGATION =           0.0000
           SW IRRIGATION =           0.0000             SW IRRIGATION =           0.0000
        SYSTEM LOSSES GW =           0.0000          SYSTEM LOSSES GW =           0.0000
        SYSTEM LOSSES SW =           0.0000          SYSTEM LOSSES SW =           0.0000

               TOTAL OUT =   807776960.0000                 TOTAL OUT =           0.0000

                IN - OUT =           0.0000                  IN - OUT =           0.0000

     PERCENT DISCREPANCY =           0.00         PERCENT DISCREPANCY =           0.00



1
  VOLUMETRIC BUDGET FOR ENTIRE MODEL AT END OF TIME STEP   30, STRESS PERIOD  24
  ------------------------------------------------------------------------------

     CUMULATIVE VOLUMES      L**3       RATES FOR THIS TIME STEP      L**3/T
     ------------------                 ------------------------

           IN:                                      IN:
           ---                                      ---
             STORAGE     =  1046873728.0000               STORAGE     =           9.8429
       CONSTANT HEAD     =           0.0000         CONSTANT HEAD     =           0.0000
     HEAD DEP BOUNDS     =    17449964.0000       HEAD DEP BOUNDS     =           0.2886
      STREAM LEAKAGE     =   717574720.0000        STREAM LEAKAGE     =          11.5291
        UZF RECHARGE     =       73223.9531          UZF RECHARGE     =           0.0000
               GW ET     =           0.0000                 GW ET     =           0.0000
     SURFACE LEAKAGE     =           0.0000       SURFACE LEAKAGE     =           0.0000
           AG WELLS      =           0.0000             AG WELLS      =           0.0000

                TOTAL IN =  1781971712.0000                  TOTAL IN =          21.6606

          OUT:                                     OUT:
          ----                                     ----
             STORAGE     =   346718240.0000               STORAGE     =          11.6879
       CONSTANT HEAD     =           0.0000         CONSTANT HEAD     =           0.0000
     HEAD DEP BOUNDS     =    17502584.0000       HEAD DEP BOUNDS     =           0.2871
      STREAM LEAKAGE     =   609975232.0000        STREAM LEAKAGE     =           9.6857
        UZF RECHARGE     =           0.0000          UZF RECHARGE     =           0.0000
               GW ET     =           0.0000                 GW ET     =           0.0000
     SURFACE LEAKAGE     =           0.0000       SURFACE LEAKAGE     =           0.0000
           AG WELLS      =   807776960.0000             AG WELLS      =           0.0000

               TOTAL OUT =  1781972992.0000                 TOTAL OUT =          21.6606

                IN - OUT =       -1280.0000                  IN - OUT =       9.5367E-06

     PERCENT DISCREPANCY =          -0.00         PERCENT DISCREPANCY =           0.00






         TIME SUMMARY AT END OF TIME STEP   30 IN STRESS PERIOD   24
                    SECONDS     MINUTES      HOURS       DAYS        YEARS
                    -----------------------------------------------------------
   TIME STEP LENGTH  87667.      1461.1      24.352      1.0147     2.77799E-03
 STRESS PERIOD TIME 2.63000E+06  43833.      730.56      30.440     8.33397E-02
         TOTAL TIME 6.05767E+07 1.00961E+06  16827.      701.12      1.9196    
1
1
                            STRESS PERIOD NO.   25, LENGTH =   2630000.    
                            -----------------------------------------------

                              NUMBER OF TIME STEPS =    30

                               MULTIPLIER FOR DELT =     1.000

                            INITIAL TIME STEP SIZE =   87666.66    

 REUSING NON-PARAMETER GHB CELLS FROM LAST STRESS PERIOD

      2 GHB CELLS

 REUSING STREAM SEGMENT DATA FROM LAST STRESS PERIOD



            AREAL INFILTRATION RATE
 READING ON UNIT   19 WITH FORMAT: (FREE)              

            1           2           3           4           5           6           7           8           9          10
 ........................................................................................................................
   1   1.0000E-10  2.0000E-10   0.000       0.000       0.000       0.000       0.000       0.000       0.000       0.000    
   2   2.0000E-10  1.0000E-10  2.0000E-10   0.000       0.000      8.0000E-10  8.0000E-10  5.0000E-10   0.000       0.000    
   3    0.000      5.0000E-10  1.0000E-10  1.0000E-10  8.0000E-10  8.0000E-10  5.0000E-10  5.0000E-10   0.000       0.000    
   4   8.0000E-10  5.0000E-10  1.0000E-10  1.0000E-10  1.0000E-10  1.0000E-10  1.0000E-10  1.0000E-10  2.0000E-10   0.000    
   5   8.0000E-10  5.0000E-10  1.0000E-10  1.0000E-10  1.0000E-10  1.0000E-10  1.0000E-10  1.0000E-10  1.0000E-10  1.0000E-10
   6   8.0000E-10  5.0000E-10  5.0000E-10  2.0000E-10  2.0000E-10  1.0000E-10  1.0000E-10  1.0000E-10  1.0000E-10  5.0000E-10
   7   8.0000E-10  5.0000E-10  5.0000E-10  2.0000E-10  2.0000E-10  1.0000E-10  1.0000E-10  2.0000E-10  2.0000E-10   0.000    
   8    0.000      5.0000E-10  5.0000E-10  2.0000E-10  2.0000E-10  1.0000E-10  1.0000E-10  2.0000E-10  5.0000E-10   0.000    
   9    0.000      5.0000E-10  5.0000E-10  2.0000E-10  2.0000E-10  1.0000E-10  1.0000E-10  2.0000E-10  5.0000E-10   0.000    
  10    0.000      5.0000E-10  5.0000E-10  2.0000E-10  2.0000E-10  1.0000E-10  1.0000E-10  2.0000E-10  5.0000E-10  8.0000E-10
  11    0.000      1.0000E-10  1.0000E-10  1.0000E-10  1.0000E-10  1.0000E-10  1.0000E-10  2.0000E-10  5.0000E-10   0.000    
  12   1.0000E-10  1.0000E-10  1.0000E-10  1.0000E-10  1.0000E-10  1.0000E-10  1.0000E-10  1.0000E-10  2.0000E-10   0.000    
  13   1.0000E-10  1.0000E-10  2.0000E-10  2.0000E-10  2.0000E-10  2.0000E-10  2.0000E-10  1.0000E-10  1.0000E-10   0.000    
  14    0.000      2.0000E-10  5.0000E-10  5.0000E-10  5.0000E-10  5.0000E-10  5.0000E-10  2.0000E-10  1.0000E-10   0.000    
  15    0.000       0.000      8.0000E-10  8.0000E-10  8.0000E-10  8.0000E-10   0.000       0.000       0.000       0.000    

                  ET RATE =  5.000000E-10

 USING ET EXTINCTION DEPTH FROM PREVIOUS STRESS PERIOD. CURRENT PERIOD IS:      25

 USING EXTINCTION WATER CONTENT FROM PREVIOUS STRESS PERIOD. CURRENT PERIOD IS:      25

 USING AIR ENTRY PRESSURE FROM PREVIOUS STRESS PERIOD. CURRENT PERIOD IS:      25

 USING ROOT PRESSURE HEAD FROM PREVIOUS STRESS PERIOD. CURRENT PERIOD IS:      25

 USING ROOT ACTIVITY FROM PREVIOUS STRESS PERIOD. CURRENT PERIOD IS:      25

 PROCESSING AG STRESS PERIOD DATA

 READING AG STRESS PERIOD DATA

 READING IRRIGATION SEGMENT

 READING IRRIGATION WELL

 READING SUPPLEMENTAL WELL

 NO IRRPOND OR REUSING IRRPOND DATA FROM LAST STRESS PERIOD

 END PROCESSING AG STRESS PERIOD DATA OPTIONS
 
 SOLVING FOR HEAD 
                                                   Max.-Head-Change                         Max.-Flux-Residual
  Residual-Control   Outer-Iter.   Inner-Iter.     Column Row Layer    Maximum-Head-Change  Column Row Layer    Maximum-Flux-Residual          L2-NORM 
          0                 1           2             4    7     1       0.3435647856E-01       4    7    1         0.1808091347E+01      0.3863009949E+01
          0                 2           2             4    7     1      -0.3341974279E-02       4    7    1        -0.1808108808E+00      0.3863002859E+00
          0                 3           2             4    7     1       0.2275758067E-03       4    7    1         0.1265675059E-01      0.2704085280E-01
          0                 4           1             4    7     1      -0.9055455581E-05       4    7    1        -0.5176618943E-03      0.1105956841E-02

    ------------------------------------------------
       NWT REQUIRED            4 OUTER ITERATIONS 
       AND A TOTAL OF          7 INNER ITERATIONS.
    ------------------------------------------------

 NO OUTPUT CONTROL FOR STRESS PERIOD   25   TIME STEP    1
 
 SOLVING FOR HEAD 
                                                   Max.-Head-Change                         Max.-Flux-Residual
  Residual-Control   Outer-Iter.   Inner-Iter.     Column Row Layer    Maximum-Head-Change  Column Row Layer    Maximum-Flux-Residual          L2-NORM 
          0                 1           2             4    7     1       0.3392119349E-01       4    7    1         0.1785082171E+01      0.3822639684E+01
          0                 2           2             4    7     1      -0.3299632260E-02       4    7    1        -0.1785099188E+00      0.3822630277E+00
          0                 3           2             4    7     1       0.2246924787E-03       4    7    1         0.1249568361E-01      0.2675825093E-01
          0                 4           1             4    7     1      -0.8940725401E-05       4    7    1        -0.5110742466E-03      0.1094404987E-02

    ------------------------------------------------
       NWT REQUIRED            4 OUTER ITERATIONS 
       AND A TOTAL OF          7 INNER ITERATIONS.
    ------------------------------------------------

 NO OUTPUT CONTROL FOR STRESS PERIOD   25   TIME STEP    2
 
 SOLVING FOR HEAD 
                                                   Max.-Head-Change                         Max.-Flux-Residual
  Residual-Control   Outer-Iter.   Inner-Iter.     Column Row Layer    Maximum-Head-Change  Column Row Layer    Maximum-Flux-Residual          L2-NORM 
          0                 1           2             4    7     1       0.3349327463E-01       4    7    1         0.1762462333E+01      0.3782725906E+01
          0                 2           2             4    7     1      -0.3258006789E-02       4    7    1        -0.1762478920E+00      0.3782716761E+00
          0                 3           2             4    7     1       0.2218579448E-03       4    7    1         0.1233734208E-01      0.2647884364E-01
          0                 4           1             4    7     1      -0.8827936273E-05       4    7    1        -0.5045980597E-03      0.1082979894E-02

    ------------------------------------------------
       NWT REQUIRED            4 OUTER ITERATIONS 
       AND A TOTAL OF          7 INNER ITERATIONS.
    ------------------------------------------------

 NO OUTPUT CONTROL FOR STRESS PERIOD   25   TIME STEP    3
 
 SOLVING FOR HEAD 
                                                   Max.-Head-Change                         Max.-Flux-Residual
  Residual-Control   Outer-Iter.   Inner-Iter.     Column Row Layer    Maximum-Head-Change  Column Row Layer    Maximum-Flux-Residual          L2-NORM 
          0                 1           2             4    7     1       0.3307271739E-01       4    7    1         0.1740231692E+01      0.3743500211E+01
          0                 2           2             4    7     1      -0.3217097419E-02       4    7    1        -0.1740247858E+00      0.3743491540E+00
          0                 3           2             4    7     1       0.2190721739E-03       4    7    1         0.1218172496E-01      0.2620428210E-01
          0                 4           1             4    7     1      -0.8717087735E-05       4    7    1        -0.4982332994E-03      0.1071757591E-02

    ------------------------------------------------
       NWT REQUIRED            4 OUTER ITERATIONS 
       AND A TOTAL OF          7 INNER ITERATIONS.
    ------------------------------------------------

 NO OUTPUT CONTROL FOR STRESS PERIOD   25   TIME STEP    4
 
 SOLVING FOR HEAD 
                                                   Max.-Head-Change                         Max.-Flux-Residual
  Residual-Control   Outer-Iter.   Inner-Iter.     Column Row Layer    Maximum-Head-Change  Column Row Layer    Maximum-Flux-Residual          L2-NORM 
          0                 1           2             4    7     1       0.3265924244E-01       4    7    1         0.1718375460E+01      0.3704948012E+01
          0                 2           2             4    7     1      -0.3176876981E-02       4    7    1        -0.1718391217E+00      0.3704939332E+00
          0                 3           2             4    7     1       0.2163333178E-03       4    7    1         0.1202872882E-01      0.2593439871E-01
          0                 4           1             4    7     1      -0.8608106337E-05       4    7    1        -0.4919757678E-03      0.1060707990E-02

    ------------------------------------------------
       NWT REQUIRED            4 OUTER ITERATIONS 
       AND A TOTAL OF          7 INNER ITERATIONS.
    ------------------------------------------------

 NO OUTPUT CONTROL FOR STRESS PERIOD   25   TIME STEP    5
 
 SOLVING FOR HEAD 
                                                   Max.-Head-Change                         Max.-Flux-Residual
  Residual-Control   Outer-Iter.   Inner-Iter.     Column Row Layer    Maximum-Head-Change  Column Row Layer    Maximum-Flux-Residual          L2-NORM 
          0                 1           2             4    7     1       0.3225297933E-01       4    7    1         0.1696900980E+01      0.3667059995E+01
          0                 2           2             4    7     1      -0.3137358074E-02       4    7    1        -0.1696916340E+00      0.3667051564E+00
          0                 3           2             4    7     1       0.2136422321E-03       4    7    1         0.1187840497E-01      0.2566921104E-01
          0                 4           1             4    7     1      -0.8501025695E-05       4    7    1        -0.4858275081E-03      0.1049867715E-02

    ------------------------------------------------
       NWT REQUIRED            4 OUTER ITERATIONS 
       AND A TOTAL OF          7 INNER ITERATIONS.
    ------------------------------------------------

 NO OUTPUT CONTROL FOR STRESS PERIOD   25   TIME STEP    6
 
 SOLVING FOR HEAD 
                                                   Max.-Head-Change                         Max.-Flux-Residual
  Residual-Control   Outer-Iter.   Inner-Iter.     Column Row Layer    Maximum-Head-Change  Column Row Layer    Maximum-Flux-Residual          L2-NORM 
          0                 1           2             4    7     1       0.3185351270E-01       4    7    1         0.1675785867E+01      0.3629804665E+01
          0                 2           2             4    7     1      -0.3098500293E-02       4    7    1        -0.1675800840E+00      0.3629796626E+00
          0                 3           2             4    7     1       0.2109961671E-03       4    7    1         0.1173059678E-01      0.2540842240E-01
          0                 4           1             4    7     1      -0.8395735978E-05       4    7    1        -0.4797821464E-03      0.1039196707E-02

    ------------------------------------------------
       NWT REQUIRED            4 OUTER ITERATIONS 
       AND A TOTAL OF          7 INNER ITERATIONS.
    ------------------------------------------------

 NO OUTPUT CONTROL FOR STRESS PERIOD   25   TIME STEP    7
 
 SOLVING FOR HEAD 
                                                   Max.-Head-Change                         Max.-Flux-Residual
  Residual-Control   Outer-Iter.   Inner-Iter.     Column Row Layer    Maximum-Head-Change  Column Row Layer    Maximum-Flux-Residual          L2-NORM 
          0                 1           2             4    7     1       0.3146097839E-01       4    7    1         0.1655037689E+01      0.3593187008E+01
          0                 2           2             4    7     1      -0.3060316855E-02       4    7    1        -0.1655052285E+00      0.3593179035E+00
          0                 3           2             4    7     1       0.2083960216E-03       4    7    1         0.1158535718E-01      0.2515208286E-01
          0                 4           1             4    7     1      -0.8292273682E-05       4    7    1        -0.4738418384E-03      0.1028700142E-02

    ------------------------------------------------
       NWT REQUIRED            4 OUTER ITERATIONS 
       AND A TOTAL OF          7 INNER ITERATIONS.
    ------------------------------------------------

 NO OUTPUT CONTROL FOR STRESS PERIOD   25   TIME STEP    8
 
 SOLVING FOR HEAD 
                                                   Max.-Head-Change                         Max.-Flux-Residual
  Residual-Control   Outer-Iter.   Inner-Iter.     Column Row Layer    Maximum-Head-Change  Column Row Layer    Maximum-Flux-Residual          L2-NORM 
          0                 1           2             4    7     1       0.3107496629E-01       4    7    1         0.1634634384E+01      0.3557174773E+01
          0                 2           2             4    7     1      -0.3022767281E-02       4    7    1        -0.1634648614E+00      0.3556834170E+00
          0                 3           2             4    7     1       0.2058390400E-03       4    7    1         0.1144253177E-01      0.2489769321E-01
          0                 4           1             4    7     1      -0.8190528744E-05       4    7    1        -0.4680002617E-03      0.1018323662E-02

    ------------------------------------------------
       NWT REQUIRED            4 OUTER ITERATIONS 
       AND A TOTAL OF          7 INNER ITERATIONS.
    ------------------------------------------------

 NO OUTPUT CONTROL FOR STRESS PERIOD   25   TIME STEP    9
 
 SOLVING FOR HEAD 
                                                   Max.-Head-Change                         Max.-Flux-Residual
  Residual-Control   Outer-Iter.   Inner-Iter.     Column Row Layer    Maximum-Head-Change  Column Row Layer    Maximum-Flux-Residual          L2-NORM 
          0                 1           2             4    7     1       0.3069561627E-01       4    7    1         0.1614583827E+01      0.3521793262E+01
          0                 2           2             4    7     1      -0.2985866928E-02       4    7    1        -0.1614597700E+00      0.3521785778E+00
          0                 3           2             4    7     1       0.2033262680E-03       4    7    1         0.1130217566E-01      0.2465236510E-01
          0                 4           1             4    7     1      -0.8090543647E-05       4    7    1        -0.4622596805E-03      0.1008278686E-02

    ------------------------------------------------
       NWT REQUIRED            4 OUTER ITERATIONS 
       AND A TOTAL OF          7 INNER ITERATIONS.
    ------------------------------------------------

 NO OUTPUT CONTROL FOR STRESS PERIOD   25   TIME STEP   10
 
 SOLVING FOR HEAD 
                                                   Max.-Head-Change                         Max.-Flux-Residual
  Residual-Control   Outer-Iter.   Inner-Iter.     Column Row Layer    Maximum-Head-Change  Column Row Layer    Maximum-Flux-Residual          L2-NORM 
          0                 1           2             4    7     1       0.3032265571E-01       4    7    1         0.1594871345E+01      0.3487018372E+01
          0                 2           2             4    7     1      -0.2949587525E-02       4    7    1        -0.1594884872E+00      0.3487011008E+00
          0                 3           2             4    7     1       0.2008557802E-03       4    7    1         0.1116418612E-01      0.2440895813E-01
          0                 4           1             4    7     1      -0.7992240449E-05       4    7    1        -0.4566159014E-03      0.9983303880E-03

    ------------------------------------------------
       NWT REQUIRED            4 OUTER ITERATIONS 
       AND A TOTAL OF          7 INNER ITERATIONS.
    ------------------------------------------------

 NO OUTPUT CONTROL FOR STRESS PERIOD   25   TIME STEP   11
 
 SOLVING FOR HEAD 
                                                   Max.-Head-Change                         Max.-Flux-Residual
  Residual-Control   Outer-Iter.   Inner-Iter.     Column Row Layer    Maximum-Head-Change  Column Row Layer    Maximum-Flux-Residual          L2-NORM 
          0                 1           2             4    7     1       0.2995609096E-01       4    7    1         0.1575497453E+01      0.3452818314E+01
          0                 2           2             4    7     1      -0.2913930274E-02       4    7    1        -0.1575510642E+00      0.3452810844E+00
          0                 3           2             4    7     1       0.1984276588E-03       4    7    1         0.1102856679E-01      0.2416953336E-01
          0                 4           1             4    7     1      -0.7895623179E-05       4    7    1        -0.4510690699E-03      0.9885283658E-03

    ------------------------------------------------
       NWT REQUIRED            4 OUTER ITERATIONS 
       AND A TOTAL OF          7 INNER ITERATIONS.
    ------------------------------------------------

 NO OUTPUT CONTROL FOR STRESS PERIOD   25   TIME STEP   12
 
 SOLVING FOR HEAD 
                                                   Max.-Head-Change                         Max.-Flux-Residual
  Residual-Control   Outer-Iter.   Inner-Iter.     Column Row Layer    Maximum-Head-Change  Column Row Layer    Maximum-Flux-Residual          L2-NORM 
          0                 1           2             4    7     1       0.2959565275E-01       4    7    1         0.1556447892E+01      0.3419172239E+01
          0                 2           2             4    7     1      -0.2878868980E-02       4    7    1        -0.1556460753E+00      0.3419164867E+00
          0                 3           2             4    7     1       0.1960401192E-03       4    7    1         0.1089521781E-01      0.2393400846E-01
          0                 4           1             4    7     1      -0.7800620689E-05       4    7    1        -0.4456150866E-03      0.9788882889E-03

    ------------------------------------------------
       NWT REQUIRED            4 OUTER ITERATIONS 
       AND A TOTAL OF          7 INNER ITERATIONS.
    ------------------------------------------------

 NO OUTPUT CONTROL FOR STRESS PERIOD   25   TIME STEP   13
 
 SOLVING FOR HEAD 
                                                   Max.-Head-Change                         Max.-Flux-Residual
  Residual-Control   Outer-Iter.   Inner-Iter.     Column Row Layer    Maximum-Head-Change  Column Row Layer    Maximum-Flux-Residual          L2-NORM 
          0                 1           2             4    7     1       0.2924135428E-01       4    7    1         0.1537723258E+01      0.3386080686E+01
          0                 2           2             4    7     1      -0.2844404930E-02       4    7    1        -0.1537735799E+00      0.3386073395E+00
          0                 3           2             4    7     1       0.1936932497E-03       4    7    1         0.1076414338E-01      0.2370238983E-01
          0                 4           1             4    7     1      -0.7707236548E-05       4    7    1        -0.4402541326E-03      0.9694297430E-03

    ------------------------------------------------
       NWT REQUIRED            4 OUTER ITERATIONS 
       AND A TOTAL OF          7 INNER ITERATIONS.
    ------------------------------------------------

 NO OUTPUT CONTROL FOR STRESS PERIOD   25   TIME STEP   14
 
 SOLVING FOR HEAD 
                                                   Max.-Head-Change                         Max.-Flux-Residual
  Residual-Control   Outer-Iter.   Inner-Iter.     Column Row Layer    Maximum-Head-Change  Column Row Layer    Maximum-Flux-Residual          L2-NORM 
          0                 1           2             4    7     1       0.2889293009E-01       4    7    1         0.1519309678E+01      0.3353511239E+01
          0                 2           2             4    7     1      -0.2810512300E-02       4    7    1        -0.1519321909E+00      0.3353503919E+00
          0                 3           2             4    7     1       0.1913852917E-03       4    7    1         0.1063524638E-01      0.2347440279E-01
          0                 4           1             4    7     1      -0.7615400643E-05       4    7    1        -0.4349822373E-03      0.9600934945E-03

    ------------------------------------------------
       NWT REQUIRED            4 OUTER ITERATIONS 
       AND A TOTAL OF          7 INNER ITERATIONS.
    ------------------------------------------------

 NO OUTPUT CONTROL FOR STRESS PERIOD   25   TIME STEP   15
 
 SOLVING FOR HEAD 
                                                   Max.-Head-Change                         Max.-Flux-Residual
  Residual-Control   Outer-Iter.   Inner-Iter.     Column Row Layer    Maximum-Head-Change  Column Row Layer    Maximum-Flux-Residual          L2-NORM 
          0                 1           2             4    7     1       0.2855053008E-01       4    7    1         0.1501215228E+01      0.3321477989E+01
          0                 2           2             4    7     1      -0.2777205671E-02       4    7    1        -0.1501227156E+00      0.3321470603E+00
          0                 3           2             4    7     1       0.1891172382E-03       4    7    1         0.1050858335E-01      0.2325016241E-01
          0                 4           1             4    7     1      -0.7525152923E-05       4    7    1        -0.4298017097E-03      0.9509289065E-03

    ------------------------------------------------
       NWT REQUIRED            4 OUTER ITERATIONS 
       AND A TOTAL OF          7 INNER ITERATIONS.
    ------------------------------------------------

 NO OUTPUT CONTROL FOR STRESS PERIOD   25   TIME STEP   16
 
 SOLVING FOR HEAD 
                                                   Max.-Head-Change                         Max.-Flux-Residual
  Residual-Control   Outer-Iter.   Inner-Iter.     Column Row Layer    Maximum-Head-Change  Column Row Layer    Maximum-Flux-Residual          L2-NORM 
          0                 1           2             4    7     1       0.2821375296E-01       4    7    1         0.1483418558E+01      0.3289940942E+01
          0                 2           2             4    7     1      -0.2744446007E-02       4    7    1        -0.1483430192E+00      0.3289933382E+00
          0                 3           2             4    7     1       0.1868864308E-03       4    7    1         0.1038400483E-01      0.2302940322E-01
          0                 4           1             4    7     1      -0.7436386895E-05       4    7    1        -0.4247064410E-03      0.9419052024E-03

    ------------------------------------------------
       NWT REQUIRED            4 OUTER ITERATIONS 
       AND A TOTAL OF          7 INNER ITERATIONS.
    ------------------------------------------------

 NO OUTPUT CONTROL FOR STRESS PERIOD   25   TIME STEP   17
 
 SOLVING FOR HEAD 
                                                   Max.-Head-Change                         Max.-Flux-Residual
  Residual-Control   Outer-Iter.   Inner-Iter.     Column Row Layer    Maximum-Head-Change  Column Row Layer    Maximum-Flux-Residual          L2-NORM 
          0                 1           2             4    7     1       0.2788262218E-01       4    7    1         0.1465920705E+01      0.3258912392E+01
          0                 2           2             4    7     1      -0.2712235566E-02       4    7    1        -0.1465932053E+00      0.3258745594E+00
          0                 3           2             4    7     1       0.1846930231E-03       4    7    1         0.1026151806E-01      0.2281107241E-01
          0                 4           1             4    7     1      -0.7349108776E-05       4    7    1        -0.4196967161E-03      0.9329671581E-03

    ------------------------------------------------
       NWT REQUIRED            4 OUTER ITERATIONS 
       AND A TOTAL OF          7 INNER ITERATIONS.
    ------------------------------------------------

 NO OUTPUT CONTROL FOR STRESS PERIOD   25   TIME STEP   18
 
 SOLVING FOR HEAD 
                                                   Max.-Head-Change                         Max.-Flux-Residual
  Residual-Control   Outer-Iter.   Inner-Iter.     Column Row Layer    Maximum-Head-Change  Column Row Layer    Maximum-Flux-Residual          L2-NORM 
          0                 1           2             4    7     1       0.2755715228E-01       4    7    1         0.1448722886E+01      0.3228389249E+01
          0                 2           2             4    7     1      -0.2680575834E-02       4    7    1        -0.1448733956E+00      0.3228381585E+00
          0                 3           2             4    7     1       0.1825371170E-03       4    7    1         0.1014113161E-01      0.2259853312E-01
          0                 4           1             4    7     1      -0.7263323632E-05       4    7    1        -0.4147729146E-03      0.9242796972E-03

    ------------------------------------------------
       NWT REQUIRED            4 OUTER ITERATIONS 
       AND A TOTAL OF          7 INNER ITERATIONS.
    ------------------------------------------------

 NO OUTPUT CONTROL FOR STRESS PERIOD   25   TIME STEP   19
 
 SOLVING FOR HEAD 
                                                   Max.-Head-Change                         Max.-Flux-Residual
  Residual-Control   Outer-Iter.   Inner-Iter.     Column Row Layer    Maximum-Head-Change  Column Row Layer    Maximum-Flux-Residual          L2-NORM 
          0                 1           2             4    7     1       0.2723695309E-01       4    7    1         0.1431804006E+01      0.3198343265E+01
          0                 2           2             4    7     1      -0.2649428786E-02       4    7    1        -0.1431814805E+00      0.3198335656E+00
          0                 3           2             4    7     1       0.1804161225E-03       4    7    1         0.1002269776E-01      0.2238821692E-01
          0                 4           1             4    7     1      -0.7178927157E-05       4    7    1        -0.4099289615E-03      0.9156736725E-03

    ------------------------------------------------
       NWT REQUIRED            4 OUTER ITERATIONS 
       AND A TOTAL OF          7 INNER ITERATIONS.
    ------------------------------------------------

 NO OUTPUT CONTROL FOR STRESS PERIOD   25   TIME STEP   20
 
 SOLVING FOR HEAD 
                                                   Max.-Head-Change                         Max.-Flux-Residual
  Residual-Control   Outer-Iter.   Inner-Iter.     Column Row Layer    Maximum-Head-Change  Column Row Layer    Maximum-Flux-Residual          L2-NORM 
          0                 1           2             4    7     1       0.2692218565E-01       4    7    1         0.1415172969E+01      0.3168771838E+01
          0                 2           2             4    7     1      -0.2618810109E-02       4    7    1        -0.1415183504E+00      0.3168764214E+00
          0                 3           2             4    7     1       0.1783311076E-03       4    7    1         0.9906278837E-02      0.2218122934E-01
          0                 4           1             4    7     1      -0.7095962755E-05       4    7    1        -0.4051674300E-03      0.9072132617E-03

    ------------------------------------------------
       NWT REQUIRED            4 OUTER ITERATIONS 
       AND A TOTAL OF          7 INNER ITERATIONS.
    ------------------------------------------------

 NO OUTPUT CONTROL FOR STRESS PERIOD   25   TIME STEP   21
 
 SOLVING FOR HEAD 
                                                   Max.-Head-Change                         Max.-Flux-Residual
  Residual-Control   Outer-Iter.   Inner-Iter.     Column Row Layer    Maximum-Head-Change  Column Row Layer    Maximum-Flux-Residual          L2-NORM 
          0                 1           2             4    7     1       0.2661259532E-01       4    7    1         0.1398816274E+01      0.3139649504E+01
          0                 2           2             4    7     1      -0.2588695035E-02       4    7    1        -0.1398826553E+00      0.3139641736E+00
          0                 3           2             4    7     1       0.1762803866E-03       4    7    1         0.9791780376E-02      0.2197737553E-01
          0                 4           1             4    7     1      -0.7014362499E-05       4    7    1        -0.4004844363E-03      0.8988758734E-03

    ------------------------------------------------
       NWT REQUIRED            4 OUTER ITERATIONS 
       AND A TOTAL OF          7 INNER ITERATIONS.
    ------------------------------------------------

 NO OUTPUT CONTROL FOR STRESS PERIOD   25   TIME STEP   22
 
 SOLVING FOR HEAD 
                                                   Max.-Head-Change                         Max.-Flux-Residual
  Residual-Control   Outer-Iter.   Inner-Iter.     Column Row Layer    Maximum-Head-Change  Column Row Layer    Maximum-Flux-Residual          L2-NORM 
          0                 1           2             4    7     1       0.2630807627E-01       4    7    1         0.1382728002E+01      0.3110981270E+01
          0                 2           2             4    7     1      -0.2559073267E-02       4    7    1        -0.1382738032E+00      0.3110973468E+00
          0                 3           2             4    7     1       0.1742632574E-03       4    7    1         0.9679160912E-02      0.2177668082E-01
          0                 4           1             4    7     1      -0.6934098875E-05       4    7    1        -0.3958782791E-03      0.8906586401E-03

    ------------------------------------------------
       NWT REQUIRED            4 OUTER ITERATIONS 
       AND A TOTAL OF          7 INNER ITERATIONS.
    ------------------------------------------------

 NO OUTPUT CONTROL FOR STRESS PERIOD   25   TIME STEP   23
 
 SOLVING FOR HEAD 
                                                   Max.-Head-Change                         Max.-Flux-Residual
  Residual-Control   Outer-Iter.   Inner-Iter.     Column Row Layer    Maximum-Head-Change  Column Row Layer    Maximum-Flux-Residual          L2-NORM 
          0                 1           2             4    7     1       0.2600865393E-01       4    7    1         0.1366909950E+01      0.3082750398E+01
          0                 2           2             4    7     1      -0.2529947282E-02       4    7    1        -0.1366919737E+00      0.3082742619E+00
          0                 3           2             4    7     1       0.1722798893E-03       4    7    1         0.9568433047E-02      0.2157907113E-01
          0                 4           1             4    7     1      -0.6855178674E-05       4    7    1        -0.3913494879E-03      0.8825806323E-03

    ------------------------------------------------
       NWT REQUIRED            4 OUTER ITERATIONS 
       AND A TOTAL OF          7 INNER ITERATIONS.
    ------------------------------------------------

 NO OUTPUT CONTROL FOR STRESS PERIOD   25   TIME STEP   24
 
 SOLVING FOR HEAD 
                                                   Max.-Head-Change                         Max.-Flux-Residual
  Residual-Control   Outer-Iter.   Inner-Iter.     Column Row Layer    Maximum-Head-Change  Column Row Layer    Maximum-Flux-Residual          L2-NORM 
          0                 1           2             4    7     1       0.2571408349E-01       4    7    1         0.1351348869E+01      0.3054947177E+01
          0                 2           2             4    7     1      -0.2501293262E-02       4    7    1        -0.1351358420E+00      0.3054939059E+00
          0                 3           2             4    7     1       0.1703286602E-03       4    7    1         0.9459503988E-02      0.2138444319E-01
          0                 4           1             4    7     1      -0.6777537542E-05       4    7    1        -0.3868943002E-03      0.8746261004E-03

    ------------------------------------------------
       NWT REQUIRED            4 OUTER ITERATIONS 
       AND A TOTAL OF          7 INNER ITERATIONS.
    ------------------------------------------------

 NO OUTPUT CONTROL FOR STRESS PERIOD   25   TIME STEP   25
 
 SOLVING FOR HEAD 
                                                   Max.-Head-Change                         Max.-Flux-Residual
  Residual-Control   Outer-Iter.   Inner-Iter.     Column Row Layer    Maximum-Head-Change  Column Row Layer    Maximum-Flux-Residual          L2-NORM 
          0                 1           2             4    7     1       0.2542440089E-01       4    7    1         0.1336046633E+01      0.3027567775E+01
          0                 2           2             4    7     1      -0.2473114706E-02       4    7    1        -0.1336055955E+00      0.3027559777E+00
          0                 3           2             4    7     1       0.1684098080E-03       4    7    1         0.9352386902E-02      0.2119280816E-01
          0                 4           1             4    7     1      -0.6701184457E-05       4    7    1        -0.3825131871E-03      0.8667807062E-03

    ------------------------------------------------
       NWT REQUIRED            4 OUTER ITERATIONS 
       AND A TOTAL OF          7 INNER ITERATIONS.
    ------------------------------------------------

 NO OUTPUT CONTROL FOR STRESS PERIOD   25   TIME STEP   26
 
 SOLVING FOR HEAD 
                                                   Max.-Head-Change                         Max.-Flux-Residual
  Residual-Control   Outer-Iter.   Inner-Iter.     Column Row Layer    Maximum-Head-Change  Column Row Layer    Maximum-Flux-Residual          L2-NORM 
          0                 1           2             4    7     1       0.2513949586E-01       4    7    1         0.1320997823E+01      0.3000600666E+01
          0                 2           2             4    7     1      -0.2445400887E-02       4    7    1        -0.1321006922E+00      0.3000592502E+00
          0                 3           2             4    7     1       0.1665226033E-03       4    7    1         0.9247043847E-02      0.2100403574E-01
          0                 4           1             4    7     1      -0.6626090983E-05       4    7    1        -0.3782046656E-03      0.8590618344E-03

    ------------------------------------------------
       NWT REQUIRED            4 OUTER ITERATIONS 
       AND A TOTAL OF          7 INNER ITERATIONS.
    ------------------------------------------------

 NO OUTPUT CONTROL FOR STRESS PERIOD   25   TIME STEP   27
 
 SOLVING FOR HEAD 
                                                   Max.-Head-Change                         Max.-Flux-Residual
  Residual-Control   Outer-Iter.   Inner-Iter.     Column Row Layer    Maximum-Head-Change  Column Row Layer    Maximum-Flux-Residual          L2-NORM 
          0                 1           2             4    7     1       0.2485913568E-01       4    7    1         0.1306189436E+01      0.2974039710E+01
          0                 2           2             4    7     1      -0.2418129166E-02       4    7    1        -0.1306198318E+00      0.2974031468E+00
          0                 3           2             4    7     1       0.1646655032E-03       4    7    1         0.9143383762E-02      0.2081811390E-01
          0                 4           1             4    7     1      -0.6552195296E-05       4    7    1        -0.3739649696E-03      0.8514779796E-03

    ------------------------------------------------
       NWT REQUIRED            4 OUTER ITERATIONS 
       AND A TOTAL OF          7 INNER ITERATIONS.
    ------------------------------------------------

 NO OUTPUT CONTROL FOR STRESS PERIOD   25   TIME STEP   28
 
 SOLVING FOR HEAD 
                                                   Max.-Head-Change                         Max.-Flux-Residual
  Residual-Control   Outer-Iter.   Inner-Iter.     Column Row Layer    Maximum-Head-Change  Column Row Layer    Maximum-Flux-Residual          L2-NORM 
          0                 1           2             4    7     1       0.2458349065E-01       4    7    1         0.1291631262E+01      0.2947871803E+01
          0                 2           2             4    7     1      -0.2391316109E-02       4    7    1        -0.1291639932E+00      0.2947863346E+00
          0                 3           2             4    7     1       0.1628396365E-03       4    7    1         0.9041475236E-02      0.2063491958E-01
          0                 4           1             4    7     1      -0.6479542297E-05       4    7    1        -0.3697968914E-03      0.8439695174E-03

    ------------------------------------------------
       NWT REQUIRED            4 OUTER ITERATIONS 
       AND A TOTAL OF          7 INNER ITERATIONS.
    ------------------------------------------------

 NO OUTPUT CONTROL FOR STRESS PERIOD   25   TIME STEP   29
 
 SOLVING FOR HEAD 
                                                   Max.-Head-Change                         Max.-Flux-Residual
  Residual-Control   Outer-Iter.   Inner-Iter.     Column Row Layer    Maximum-Head-Change  Column Row Layer    Maximum-Flux-Residual          L2-NORM 
          0                 1           2             4    7     1       0.2431219062E-01       4    7    1         0.1277302988E+01      0.2922160176E+01
          0                 2           2             4    7     1      -0.2364925710E-02       4    7    1        -0.1277311452E+00      0.2922151034E+00
          0                 3           2             4    7     1       0.1610425509E-03       4    7    1         0.8941176013E-02      0.2045493696E-01
          0                 4           1             4    7     1      -0.6408034242E-05       4    7    1        -0.3656946383E-03      0.8365975372E-03

    ------------------------------------------------
       NWT REQUIRED            4 OUTER ITERATIONS 
       AND A TOTAL OF          7 INNER ITERATIONS.
    ------------------------------------------------

 NO OUTPUT CONTROL FOR STRESS PERIOD   25   TIME STEP   30



 STREAM LISTING     PERIOD     25   STEP       30

 LAYER ROW COL. STREAM  RCH.  FLOW INTO     FLOW TO   FLOW OUT OF   OVRLND.     DIRECT     STREAM       STREAM     STREAM     STREAM   STREAMBED  STREAMBED
                SEG.NO.  NO.  STRM. RCH.    AQUIFER    STRM. RCH.    RUNOFF     PRECIP       ET          HEAD       DEPTH      WIDTH   CONDCTNC.   GRADIENT

   1    1    1     1     1    7.4712E+00  1.2395E-01   7.3473E+00  0.000E+00  0.000E+00  0.000E+00  1.09386E+03  8.152E-01  7.220E+00  3.249E-02  1.272E+00
   1    2    2     1     2    7.3473E+00  1.9029E-01   7.1570E+00  0.000E+00  0.000E+00  0.000E+00  1.08887E+03  8.094E-01  7.136E+00  4.995E-02  1.270E+00
   1    3    3     1     3    7.1570E+00  1.6067E-01   6.9963E+00  0.000E+00  0.000E+00  0.000E+00  1.08322E+03  8.029E-01  7.042E+00  4.225E-02  1.268E+00
   1    3    4     1     4    6.9963E+00  1.4674E-01   6.8496E+00  0.000E+00  0.000E+00  0.000E+00  1.07821E+03  7.979E-01  6.962E+00  3.864E-02  1.266E+00
   1    4    5     2     1    4.8496E+00  2.6862E-01   4.5810E+00  0.000E+00  0.000E+00  0.000E+00  1.07238E+03  4.439E-01  1.200E+01  7.800E-02  1.148E+00
   1    5    6     2     2    4.5810E+00  2.0582E-01   4.3752E+00  0.000E+00  0.000E+00  0.000E+00  1.06694E+03  4.303E-01  1.200E+01  6.000E-02  1.143E+00
   1    6    6     2     3    4.3752E+00  2.0510E-01   4.1701E+00  0.000E+00  0.000E+00  0.000E+00  1.06221E+03  4.184E-01  1.200E+01  6.000E-02  1.139E+00
   1    7    6     2     4    4.1701E+00  2.0437E-01   3.9657E+00  0.000E+00  0.000E+00  0.000E+00  1.05748E+03  4.062E-01  1.200E+01  6.000E-02  1.135E+00
   1    8    6     2     5    3.9657E+00  2.0363E-01   3.7620E+00  0.000E+00  0.000E+00  0.000E+00  1.05275E+03  3.939E-01  1.200E+01  6.000E-02  1.131E+00
   1    3    5     3     1    2.0000E+00  2.8252E-01   1.7175E+00  0.000E+00  0.000E+00  0.000E+00  1.07555E+03  1.909E+00  9.636E+00  7.227E-02  1.955E+00
   1    3    6     3     2    1.7175E+00  2.4905E-01   1.4684E+00  0.000E+00  0.000E+00  0.000E+00  1.07264E+03  1.727E+00  8.909E+00  6.682E-02  1.864E+00
   1    3    7     3     3    1.4684E+00  1.9718E-01   1.2712E+00  0.000E+00  0.000E+00  0.000E+00  1.06987E+03  1.555E+00  8.218E+00  5.547E-02  1.777E+00
   1    4    8     3     4    1.2712E+00  2.2567E-01   1.0456E+00  0.000E+00  0.000E+00  0.000E+00  1.06682E+03  1.364E+00  7.455E+00  6.709E-02  1.682E+00
   1    5    8     3     5    1.0456E+00  1.5790E-01   8.8768E-01  0.000E+00  0.000E+00  0.000E+00  1.06362E+03  1.164E+00  6.655E+00  4.991E-02  1.582E+00
   1    6    8     3     6    8.8768E-01  5.5980E-02   8.3170E-01  0.000E+00  0.000E+00  0.000E+00  1.06158E+03  1.036E+00  6.145E+00  1.844E-02  1.518E+00
   1    5   10     4     1    1.0000E+01  9.0919E-02   9.9091E+00  0.000E+00  0.000E+00  0.000E+00  1.07836E+03  6.368E-01  1.000E+01  2.500E-02  1.212E+00
   1    5    9     4     2    9.9091E+00  1.8158E-01   9.7275E+00  0.000E+00  0.000E+00  0.000E+00  1.07154E+03  6.315E-01  1.000E+01  5.000E-02  1.211E+00
   1    6    8     4     3    9.7275E+00  1.2689E-01   9.6006E+00  0.000E+00  0.000E+00  0.000E+00  1.06381E+03  6.256E-01  1.000E+01  3.500E-02  1.209E+00
   1    6    8     5     1    1.0432E+01  2.2686E-01   1.0205E+01  0.000E+00  0.000E+00  0.000E+00  1.05868E+03  6.790E-01  1.542E+01  6.166E-02  1.226E+00
   1    7    7     5     2    1.0205E+01  2.7894E-01   9.9265E+00  0.000E+00  0.000E+00  0.000E+00  1.05417E+03  6.732E-01  1.519E+01  7.594E-02  1.224E+00
   1    8    7     5     3    9.9265E+00  1.9221E-01   9.7343E+00  0.000E+00  0.000E+00  0.000E+00  1.04992E+03  6.676E-01  1.497E+01  5.241E-02  1.223E+00
   1    8    6     5     4    9.7343E+00  1.3577E-01   9.5985E+00  0.000E+00  0.000E+00  0.000E+00  1.04691E+03  6.637E-01  1.482E+01  3.706E-02  1.221E+00
   1    9    6     6     1    1.3361E+01  2.3005E-01   1.3131E+01  0.000E+00  0.000E+00  0.000E+00  1.04356E+03  8.341E-01  1.200E+01  6.000E-02  1.278E+00
   1   10    7     6     2    1.3131E+01  2.2952E-01   1.2901E+01  0.000E+00  0.000E+00  0.000E+00  1.03901E+03  8.254E-01  1.200E+01  6.000E-02  1.275E+00
   1   11    7     6     3    1.2901E+01  2.2900E-01   1.2672E+01  0.000E+00  0.000E+00  0.000E+00  1.03445E+03  8.166E-01  1.200E+01  6.000E-02  1.272E+00
   1   12    7     6     4    1.2672E+01  2.2847E-01   1.2444E+01  0.000E+00  0.000E+00  0.000E+00  1.02990E+03  8.078E-01  1.200E+01  6.000E-02  1.269E+00
   1   13    7     6     5    1.2444E+01  2.1566E-03   1.2441E+01  0.000E+00  0.000E+00  0.000E+00  1.02671E+03  8.034E-01  1.200E+01  2.400E-02  2.995E-02
   1   14    9     7     1    1.5000E+02  1.3789E+00   1.4862E+02  0.000E+00  0.000E+00  0.000E+00  1.03987E+03  2.288E+00  5.529E+01  5.593E-01  8.218E-01
   1   13    8     7     2    1.4862E+02  1.9741E+00   1.4665E+02  0.000E+00  0.000E+00  0.000E+00  1.03478E+03  2.279E+00  5.525E+01  6.147E-01  1.070E+00
   1   13    7     7     3    1.4665E+02  1.7117E+00   1.4494E+02  0.000E+00  0.000E+00  0.000E+00  1.02969E+03  2.269E+00  5.521E+01  5.584E-01  1.022E+00
   1   13    6     8     1    1.5738E+02  1.0957E+00   1.5628E+02  0.000E+00  0.000E+00  0.000E+00  1.02474E+03  2.864E+00  4.153E+01  4.232E-01  8.630E-01
   1   13    5     8     2    1.5628E+02  3.5512E-01   1.5593E+02  0.000E+00  0.000E+00  0.000E+00  1.01848E+03  2.859E+00  4.146E+01  4.225E-01  2.802E-01
   1   13    4     8     3    1.5593E+02 -1.7916E+00   1.5772E+02  0.000E+00  0.000E+00  0.000E+00  1.01224E+03  2.864E+00  4.153E+01  4.232E+00 -1.411E-01
   1   13    3     8     4    1.5772E+02 -3.3413E+00   1.6106E+02  0.000E+00  0.000E+00  0.000E+00  1.00601E+03  2.882E+00  4.178E+01  4.258E+00 -2.616E-01
   1   13    2     8     5    1.6106E+02 -2.5103E+00   1.6357E+02  0.000E+00  0.000E+00  0.000E+00  9.99776E+02  2.901E+00  4.207E+01  4.287E+00 -1.952E-01
   1   13    1     8     6    1.6357E+02 -1.9661E+00   1.6554E+02  0.000E+00  0.000E+00  0.000E+00  9.94791E+02  2.916E+00  4.229E+01  2.586E+00 -2.535E-01
   1    8    6     9     1    0.0000E+00  0.0000E+00   0.0000E+00  0.000E+00  0.000E+00  0.000E+00  1.07875E+03  0.000E+00  4.000E+00  0.000E+00  1.000E+00
   1    8    5     9     2    0.0000E+00  0.0000E+00   0.0000E+00  0.000E+00  0.000E+00  0.000E+00  1.07825E+03  0.000E+00  4.000E+00  0.000E+00  1.000E+00





UNSATURATED ZONE PACKAGE VOLUMETRIC BUDGET FOR  TIME STEP    30 STRESS PERIOD   25
  ------------------------------------------------------------------------------



     CUMULATIVE VOLUMES      L**3       RATES FOR THIS TIME STEP      L**3/T
     ------------------                 ------------------------

           IN:                                      IN:
           ---                                      ---
        INFILTRATION =   861346137.9507          INFILTRATION =           0.8475

          OUT:                                     OUT:
          ----                                     ----
              UZF ET =   860087820.6320                UZF ET =           0.7500
        UZF RECHARGE =       73224.0000          UZF RECHARGE =       0.0000E+00

            IN - OUT =     1185093.3187              IN - OUT =       9.7500E-02

          STORAGE:                                 STORAGE:
          --------                                 --------
      STORAGE CHANGE =     1185093.3057        STORAGE CHANGE =       9.7500E-02

 PERCENT DISCREPANCY IS DIFFERENCE BETWEEN IN-OUT MINUS CHANGE IN STORAGE
 DIVIDED BY THE AVERAGE OF IN AND OUT TIMES 100

 PERCENT DISCREPANCY =           0.00     PERCENT DISCREPANCY =           0.00






1
  VOLUMETRIC BUDGET FOR AGRICULTURAL FIELDS AT  END OF TIME STEP   30, STRESS PERIOD  25
  ------------------------------------------------------------------------------

     CUMULATIVE VOLUMES      L**3       RATES FOR THIS TIME STEP      L**3/T
     ------------------                 ------------------------

           IN:                                      IN:
           ---                                      ---
               AG WELLS  =   807776960.0000                 AG WELLS  =           0.0000
      DIVERSION SEGMENTS =           0.0000        DIVERSION SEGMENTS =           0.0000
       IRRIGATION PONDS  =           0.0000         IRRIGATION PONDS  =           0.0000
           GW IRRIGATION =           0.0000             GW IRRIGATION =           0.0000
           SW IRRIGATION =           0.0000             SW IRRIGATION =           0.0000
        SYSTEM LOSSES GW =           0.0000          SYSTEM LOSSES GW =           0.0000
        SYSTEM LOSSES SW =           0.0000          SYSTEM LOSSES SW =           0.0000

                TOTAL IN =   807776960.0000                  TOTAL IN =           0.0000

          OUT:                                     OUT:
          ----                                     ----
               AG WELLS  =           0.0000                 AG WELLS  =           0.0000
      DIVERSION SEGMENTS =           0.0000        DIVERSION SEGMENTS =           0.0000
       IRRIGATION PONDS  =           0.0000         IRRIGATION PONDS  =           0.0000
           GW IRRIGATION =   807776960.0000             GW IRRIGATION =           0.0000
           SW IRRIGATION =           0.0000             SW IRRIGATION =           0.0000
        SYSTEM LOSSES GW =           0.0000          SYSTEM LOSSES GW =           0.0000
        SYSTEM LOSSES SW =           0.0000          SYSTEM LOSSES SW =           0.0000

               TOTAL OUT =   807776960.0000                 TOTAL OUT =           0.0000

                IN - OUT =           0.0000                  IN - OUT =           0.0000

     PERCENT DISCREPANCY =           0.00         PERCENT DISCREPANCY =           0.00



1
  VOLUMETRIC BUDGET FOR ENTIRE MODEL AT END OF TIME STEP   30, STRESS PERIOD  25
  ------------------------------------------------------------------------------

     CUMULATIVE VOLUMES      L**3       RATES FOR THIS TIME STEP      L**3/T
     ------------------                 ------------------------

           IN:                                      IN:
           ---                                      ---
             STORAGE     =  1069651648.0000               STORAGE     =           7.6537
       CONSTANT HEAD     =           0.0000         CONSTANT HEAD     =           0.0000
     HEAD DEP BOUNDS     =    18209118.0000       HEAD DEP BOUNDS     =           0.2887
      STREAM LEAKAGE     =   747880960.0000        STREAM LEAKAGE     =          11.5454
        UZF RECHARGE     =       73223.9531          UZF RECHARGE     =           0.0000
               GW ET     =           0.0000                 GW ET     =           0.0000
     SURFACE LEAKAGE     =           0.0000       SURFACE LEAKAGE     =           0.0000
           AG WELLS      =           0.0000             AG WELLS      =           0.0000

                TOTAL IN =  1835814912.0000                  TOTAL IN =          19.4878

          OUT:                                     OUT:
          ----                                     ----
             STORAGE     =   374417984.0000               STORAGE     =           9.5915
       CONSTANT HEAD     =           0.0000         CONSTANT HEAD     =           0.0000
     HEAD DEP BOUNDS     =    18257434.0000       HEAD DEP BOUNDS     =           0.2870
      STREAM LEAKAGE     =   635363968.0000        STREAM LEAKAGE     =           9.6093
        UZF RECHARGE     =           0.0000          UZF RECHARGE     =           0.0000
               GW ET     =           0.0000                 GW ET     =           0.0000
     SURFACE LEAKAGE     =           0.0000       SURFACE LEAKAGE     =           0.0000
           AG WELLS      =   807776960.0000             AG WELLS      =           0.0000

               TOTAL OUT =  1835816448.0000                 TOTAL OUT =          19.4878

                IN - OUT =       -1536.0000                  IN - OUT =       1.1444E-05

     PERCENT DISCREPANCY =          -0.00         PERCENT DISCREPANCY =           0.00






         TIME SUMMARY AT END OF TIME STEP   30 IN STRESS PERIOD   25
                    SECONDS     MINUTES      HOURS       DAYS        YEARS
                    -----------------------------------------------------------
   TIME STEP LENGTH  87667.      1461.1      24.352      1.0147     2.77799E-03
 STRESS PERIOD TIME 2.63000E+06  43833.      730.56      30.440     8.33397E-02
         TOTAL TIME 6.32067E+07 1.05345E+06  17557.      731.56      2.0029    
1
1
                            STRESS PERIOD NO.   26, LENGTH =   2630000.    
                            -----------------------------------------------

                              NUMBER OF TIME STEPS =    30

                               MULTIPLIER FOR DELT =     1.000

                            INITIAL TIME STEP SIZE =   87666.66    

 REUSING NON-PARAMETER GHB CELLS FROM LAST STRESS PERIOD

      2 GHB CELLS

 REUSING STREAM SEGMENT DATA FROM LAST STRESS PERIOD



            AREAL INFILTRATION RATE
 READING ON UNIT   19 WITH FORMAT: (FREE)              

            1           2           3           4           5           6           7           8           9          10
 ........................................................................................................................
   1   1.0000E-10  2.0000E-10   0.000       0.000       0.000       0.000       0.000       0.000       0.000       0.000    
   2   2.0000E-10  1.0000E-10  2.0000E-10   0.000       0.000      8.0000E-10  8.0000E-10  5.0000E-10   0.000       0.000    
   3    0.000      5.0000E-10  1.0000E-10  1.0000E-10  8.0000E-10  8.0000E-10  5.0000E-10  5.0000E-10   0.000       0.000    
   4   8.0000E-10  5.0000E-10  1.0000E-10  1.0000E-10  1.0000E-10  1.0000E-10  1.0000E-10  1.0000E-10  2.0000E-10   0.000    
   5   8.0000E-10  5.0000E-10  1.0000E-10  1.0000E-10  1.0000E-10  1.0000E-10  1.0000E-10  1.0000E-10  1.0000E-10  1.0000E-10
   6   8.0000E-10  5.0000E-10  5.0000E-10  2.0000E-10  2.0000E-10  1.0000E-10  1.0000E-10  1.0000E-10  1.0000E-10  5.0000E-10
   7   8.0000E-10  5.0000E-10  5.0000E-10  2.0000E-10  2.0000E-10  1.0000E-10  1.0000E-10  2.0000E-10  2.0000E-10   0.000    
   8    0.000      5.0000E-10  5.0000E-10  2.0000E-10  2.0000E-10  1.0000E-10  1.0000E-10  2.0000E-10  5.0000E-10   0.000    
   9    0.000      5.0000E-10  5.0000E-10  2.0000E-10  2.0000E-10  1.0000E-10  1.0000E-10  2.0000E-10  5.0000E-10   0.000    
  10    0.000      5.0000E-10  5.0000E-10  2.0000E-10  2.0000E-10  1.0000E-10  1.0000E-10  2.0000E-10  5.0000E-10  8.0000E-10
  11    0.000      1.0000E-10  1.0000E-10  1.0000E-10  1.0000E-10  1.0000E-10  1.0000E-10  2.0000E-10  5.0000E-10   0.000    
  12   1.0000E-10  1.0000E-10  1.0000E-10  1.0000E-10  1.0000E-10  1.0000E-10  1.0000E-10  1.0000E-10  2.0000E-10   0.000    
  13   1.0000E-10  1.0000E-10  2.0000E-10  2.0000E-10  2.0000E-10  2.0000E-10  2.0000E-10  1.0000E-10  1.0000E-10   0.000    
  14    0.000      2.0000E-10  5.0000E-10  5.0000E-10  5.0000E-10  5.0000E-10  5.0000E-10  2.0000E-10  1.0000E-10   0.000    
  15    0.000       0.000      8.0000E-10  8.0000E-10  8.0000E-10  8.0000E-10   0.000       0.000       0.000       0.000    

                  ET RATE =  5.000000E-10

 USING ET EXTINCTION DEPTH FROM PREVIOUS STRESS PERIOD. CURRENT PERIOD IS:      26

 USING EXTINCTION WATER CONTENT FROM PREVIOUS STRESS PERIOD. CURRENT PERIOD IS:      26

 USING AIR ENTRY PRESSURE FROM PREVIOUS STRESS PERIOD. CURRENT PERIOD IS:      26

 USING ROOT PRESSURE HEAD FROM PREVIOUS STRESS PERIOD. CURRENT PERIOD IS:      26

 USING ROOT ACTIVITY FROM PREVIOUS STRESS PERIOD. CURRENT PERIOD IS:      26

 PROCESSING AG STRESS PERIOD DATA

 READING AG STRESS PERIOD DATA

 READING IRRIGATION SEGMENT

 READING IRRIGATION WELL

 READING SUPPLEMENTAL WELL

 NO IRRPOND OR REUSING IRRPOND DATA FROM LAST STRESS PERIOD

 END PROCESSING AG STRESS PERIOD DATA OPTIONS
 
 SOLVING FOR HEAD 
                                                   Max.-Head-Change                         Max.-Flux-Residual
  Residual-Control   Outer-Iter.   Inner-Iter.     Column Row Layer    Maximum-Head-Change  Column Row Layer    Maximum-Flux-Residual          L2-NORM 
          0                 1           2             4    7     1       0.2404526979E-01       4    7    1         0.1263207280E+01      0.2897561592E+01
          0                 2           2             4    7     1      -0.2338961288E-02       4    7    1        -0.1263215545E+00      0.2897460464E+00
          0                 3           2             4    7     1       0.1592744732E-03       4    7    1         0.8842504810E-02      0.2028202057E-01
          0                 4           1             4    7     1      -0.6337681147E-05       4    7    1        -0.3616589941E-03      0.8295318681E-03

    ------------------------------------------------
       NWT REQUIRED            4 OUTER ITERATIONS 
       AND A TOTAL OF          7 INNER ITERATIONS.
    ------------------------------------------------

 NO OUTPUT CONTROL FOR STRESS PERIOD   26   TIME STEP    1
 
 SOLVING FOR HEAD 
                                                   Max.-Head-Change                         Max.-Flux-Residual
  Residual-Control   Outer-Iter.   Inner-Iter.     Column Row Layer    Maximum-Head-Change  Column Row Layer    Maximum-Flux-Residual          L2-NORM 
          0                 1           2             4    7     1       0.2378265458E-01       4    7    1         0.1249338627E+01      0.2870204236E+01
          0                 2           2             4    7     1      -0.2313415711E-02       4    7    1        -0.1249346696E+00      0.2870207737E+00
          0                 3           2             4    7     1       0.1575349172E-03       4    7    1         0.8745423030E-02      0.2009141908E-01
          0                 4           1             4    7     1      -0.6268462404E-05       4    7    1        -0.3576883430E-03      0.8217506985E-03

    ------------------------------------------------
       NWT REQUIRED            4 OUTER ITERATIONS 
       AND A TOTAL OF          7 INNER ITERATIONS.
    ------------------------------------------------

 NO OUTPUT CONTROL FOR STRESS PERIOD   26   TIME STEP    2
 
 SOLVING FOR HEAD 
                                                   Max.-Head-Change                         Max.-Flux-Residual
  Residual-Control   Outer-Iter.   Inner-Iter.     Column Row Layer    Maximum-Head-Change  Column Row Layer    Maximum-Flux-Residual          L2-NORM 
          0                 1           2             4    7     1       0.2352425229E-01       4    7    1         0.1235693210E+01      0.2845430388E+01
          0                 2           2             4    7     1      -0.2288279935E-02       4    7    1        -0.1235701090E+00      0.2845433818E+00
          0                 3           2             4    7     1       0.1558232664E-03       4    7    1         0.8649903911E-02      0.1991802420E-01
          0                 4           1             4    7     1      -0.6200354182E-05       4    7    1        -0.3537815962E-03      0.8146513285E-03

    ------------------------------------------------
       NWT REQUIRED            4 OUTER ITERATIONS 
       AND A TOTAL OF          7 INNER ITERATIONS.
    ------------------------------------------------

 NO OUTPUT CONTROL FOR STRESS PERIOD   26   TIME STEP    3
 
 SOLVING FOR HEAD 
                                                   Max.-Head-Change                         Max.-Flux-Residual
  Residual-Control   Outer-Iter.   Inner-Iter.     Column Row Layer    Maximum-Head-Change  Column Row Layer    Maximum-Flux-Residual          L2-NORM 
          0                 1           2             4    7     1       0.2327010499E-01       4    7    1         0.1222273515E+01      0.2821146998E+01
          0                 2           2             4    7     1      -0.2263558060E-02       4    7    1        -0.1222281210E+00      0.2821150018E+00
          0                 3           2             4    7     1       0.1541398009E-03       4    7    1         0.8555964878E-02      0.1974803434E-01
          0                 4           1             4    7     1      -0.6133367418E-05       4    7    1        -0.3499394838E-03      0.8076954758E-03

    ------------------------------------------------
       NWT REQUIRED            4 OUTER ITERATIONS 
       AND A TOTAL OF          7 INNER ITERATIONS.
    ------------------------------------------------

 NO OUTPUT CONTROL FOR STRESS PERIOD   26   TIME STEP    4
 
 SOLVING FOR HEAD 
                                                   Max.-Head-Change                         Max.-Flux-Residual
  Residual-Control   Outer-Iter.   Inner-Iter.     Column Row Layer    Maximum-Head-Change  Column Row Layer    Maximum-Flux-Residual          L2-NORM 
          0                 1           2             4    7     1       0.2301985218E-01       4    7    1         0.1209059856E+01      0.2797218012E+01
          0                 2           2             4    7     1      -0.2239213461E-02       4    7    1        -0.1209067371E+00      0.2796844928E+00
          0                 3           2             4    7     1       0.1524820266E-03       4    7    1         0.8463468140E-02      0.1957789677E-01
          0                 4           1             4    7     1      -0.6067403332E-05       4    7    1        -0.3461563654E-03      0.8007349809E-03

    ------------------------------------------------
       NWT REQUIRED            4 OUTER ITERATIONS 
       AND A TOTAL OF          7 INNER ITERATIONS.
    ------------------------------------------------

 NO OUTPUT CONTROL FOR STRESS PERIOD   26   TIME STEP    5
 
 SOLVING FOR HEAD 
                                                   Max.-Head-Change                         Max.-Flux-Residual
  Residual-Control   Outer-Iter.   Inner-Iter.     Column Row Layer    Maximum-Head-Change  Column Row Layer    Maximum-Flux-Residual          L2-NORM 
          0                 1           2             4    7     1       0.2277368924E-01       4    7    1         0.1196062780E+01      0.2773661013E+01
          0                 2           2             4    7     1      -0.2215269822E-02       4    7    1        -0.1196070120E+00      0.2773663089E+00
          0                 3           2             4    7     1       0.1508515559E-03       4    7    1         0.8372487508E-02      0.1941561966E-01
          0                 4           1             4    7     1      -0.6002525015E-05       4    7    1        -0.3424352385E-03      0.7940988436E-03

    ------------------------------------------------
       NWT REQUIRED            4 OUTER ITERATIONS 
       AND A TOTAL OF          7 INNER ITERATIONS.
    ------------------------------------------------

 NO OUTPUT CONTROL FOR STRESS PERIOD   26   TIME STEP    6
 
 SOLVING FOR HEAD 
                                                   Max.-Head-Change                         Max.-Flux-Residual
  Residual-Control   Outer-Iter.   Inner-Iter.     Column Row Layer    Maximum-Head-Change  Column Row Layer    Maximum-Flux-Residual          L2-NORM 
          0                 1           2             4    7     1       0.2253138915E-01       4    7    1         0.1183270301E+01      0.2750478135E+01
          0                 2           2             4    7     1      -0.2191700379E-02       4    7    1        -0.1183277471E+00      0.2750479690E+00
          0                 3           2             4    7     1       0.1492465667E-03       4    7    1         0.8282939097E-02      0.1925333308E-01
          0                 4           1             4    7     1      -0.5938661318E-05       4    7    1        -0.3387727197E-03      0.7874685579E-03

    ------------------------------------------------
       NWT REQUIRED            4 OUTER ITERATIONS 
       AND A TOTAL OF          7 INNER ITERATIONS.
    ------------------------------------------------

 NO OUTPUT CONTROL FOR STRESS PERIOD   26   TIME STEP    7
 
 SOLVING FOR HEAD 
                                                   Max.-Head-Change                         Max.-Flux-Residual
  Residual-Control   Outer-Iter.   Inner-Iter.     Column Row Layer    Maximum-Head-Change  Column Row Layer    Maximum-Flux-Residual          L2-NORM 
          0                 1           2             4    7     1       0.2229300892E-01       4    7    1         0.1170685477E+01      0.2727631203E+01
          0                 2           2             4    7     1      -0.2168512279E-02       4    7    1        -0.1170692481E+00      0.2727632118E+00
          0                 3           2             4    7     1       0.1476675452E-03       4    7    1         0.8194844276E-02      0.1909338236E-01
          0                 4           1             4    7     1      -0.5875830430E-05       4    7    1        -0.3351696298E-03      0.7809168130E-03

    ------------------------------------------------
       NWT REQUIRED            4 OUTER ITERATIONS 
       AND A TOTAL OF          7 INNER ITERATIONS.
    ------------------------------------------------

 NO OUTPUT CONTROL FOR STRESS PERIOD   26   TIME STEP    8
 
 SOLVING FOR HEAD 
                                                   Max.-Head-Change                         Max.-Flux-Residual
  Residual-Control   Outer-Iter.   Inner-Iter.     Column Row Layer    Maximum-Head-Change  Column Row Layer    Maximum-Flux-Residual          L2-NORM 
          0                 1           2             4    7     1       0.2205833009E-01       4    7    1         0.1158296598E+01      0.2705103223E+01
          0                 2           2             4    7     1      -0.2145684932E-02       4    7    1        -0.1158303441E+00      0.2705573042E+00
          0                 3           2             4    7     1       0.1461130901E-03       4    7    1         0.8108121126E-02      0.1893897793E-01
          0                 4           1             4    7     1      -0.5813976975E-05       4    7    1        -0.3316226434E-03      0.7746019062E-03

    ------------------------------------------------
       NWT REQUIRED            4 OUTER ITERATIONS 
       AND A TOTAL OF          7 INNER ITERATIONS.
    ------------------------------------------------

 NO OUTPUT CONTROL FOR STRESS PERIOD   26   TIME STEP    9
 
 SOLVING FOR HEAD 
                                                   Max.-Head-Change                         Max.-Flux-Residual
  Residual-Control   Outer-Iter.   Inner-Iter.     Column Row Layer    Maximum-Head-Change  Column Row Layer    Maximum-Flux-Residual          L2-NORM 
          0                 1           2             4    7     1       0.2182740865E-01       4    7    1         0.1146106883E+01      0.2682853492E+01
          0                 2           2             4    7     1      -0.2123221597E-02       4    7    1        -0.1146113569E+00      0.2682853810E+00
          0                 3           2             4    7     1       0.1445834224E-03       4    7    1         0.8022792117E-02      0.1877994370E-01
          0                 4           1             4    7     1      -0.5753110164E-05       4    7    1        -0.3281326954E-03      0.7681084904E-03

    ------------------------------------------------
       NWT REQUIRED            4 OUTER ITERATIONS 
       AND A TOTAL OF          7 INNER ITERATIONS.
    ------------------------------------------------

 NO OUTPUT CONTROL FOR STRESS PERIOD   26   TIME STEP   10
 
 SOLVING FOR HEAD 
                                                   Max.-Head-Change                         Max.-Flux-Residual
  Residual-Control   Outer-Iter.   Inner-Iter.     Column Row Layer    Maximum-Head-Change  Column Row Layer    Maximum-Flux-Residual          L2-NORM 
          0                 1           2             4    7     1       0.2160002882E-01       4    7    1         0.1134104772E+01      0.2660903686E+01
          0                 2           2             4    7     1      -0.2101103513E-02       4    7    1        -0.1134111304E+00      0.2660903350E+00
          0                 3           2             4    7     1       0.1430772650E-03       4    7    1         0.7938776376E-02      0.1862626961E-01
          0                 4           1             4    7     1      -0.5693178765E-05       4    7    1        -0.3246964352E-03      0.7618100057E-03

    ------------------------------------------------
       NWT REQUIRED            4 OUTER ITERATIONS 
       AND A TOTAL OF          7 INNER ITERATIONS.
    ------------------------------------------------

 NO OUTPUT CONTROL FOR STRESS PERIOD   26   TIME STEP   11
 
 SOLVING FOR HEAD 
                                                   Max.-Head-Change                         Max.-Flux-Residual
  Residual-Control   Outer-Iter.   Inner-Iter.     Column Row Layer    Maximum-Head-Change  Column Row Layer    Maximum-Flux-Residual          L2-NORM 
          0                 1           2             4    7     1       0.2137611778E-01       4    7    1         0.1122286246E+01      0.2639262259E+01
          0                 2           2             4    7     1      -0.2079322852E-02       4    7    1        -0.1122292629E+00      0.2639261575E+00
          0                 3           2             4    7     1       0.1415940847E-03       4    7    1         0.7856045741E-02      0.1847479320E-01
          0                 4           1             4    7     1      -0.5634161594E-05       4    7    1        -0.3213127443E-03      0.7556184793E-03

    ------------------------------------------------
       NWT REQUIRED            4 OUTER ITERATIONS 
       AND A TOTAL OF          7 INNER ITERATIONS.
    ------------------------------------------------

 NO OUTPUT CONTROL FOR STRESS PERIOD   26   TIME STEP   12
 
 SOLVING FOR HEAD 
                                                   Max.-Head-Change                         Max.-Flux-Residual
  Residual-Control   Outer-Iter.   Inner-Iter.     Column Row Layer    Maximum-Head-Change  Column Row Layer    Maximum-Flux-Residual          L2-NORM 
          0                 1           2             4    7     1       0.2115587058E-01       4    7    1         0.1110662152E+01      0.2617918574E+01
          0                 2           2             4    7     1      -0.2057898592E-02       4    7    1        -0.1110668391E+00      0.2617917311E+00
          0                 3           2             4    7     1       0.1401351742E-03       4    7    1         0.7774676192E-02      0.1832537776E-01
          0                 4           1             4    7     1      -0.5576110343E-05       4    7    1        -0.3179847211E-03      0.7495119073E-03

    ------------------------------------------------
       NWT REQUIRED            4 OUTER ITERATIONS 
       AND A TOTAL OF          7 INNER ITERATIONS.
    ------------------------------------------------

 NO OUTPUT CONTROL FOR STRESS PERIOD   26   TIME STEP   13
 
 SOLVING FOR HEAD 
                                                   Max.-Head-Change                         Max.-Flux-Residual
  Residual-Control   Outer-Iter.   Inner-Iter.     Column Row Layer    Maximum-Head-Change  Column Row Layer    Maximum-Flux-Residual          L2-NORM 
          0                 1           2             4    7     1       0.2093893964E-01       4    7    1         0.1099213441E+01      0.2596875894E+01
          0                 2           2             4    7     1      -0.2036796917E-02       4    7    1        -0.1099219538E+00      0.2596874046E+00
          0                 3           2             4    7     1       0.1386982301E-03       4    7    1         0.7694534313E-02      0.1817806036E-01
          0                 4           1             4    7     1      -0.5518932451E-05       4    7    1        -0.3147068987E-03      0.7434756707E-03

    ------------------------------------------------
       NWT REQUIRED            4 OUTER ITERATIONS 
       AND A TOTAL OF          7 INNER ITERATIONS.
    ------------------------------------------------

 NO OUTPUT CONTROL FOR STRESS PERIOD   26   TIME STEP   14
 
 SOLVING FOR HEAD 
                                                   Max.-Head-Change                         Max.-Flux-Residual
  Residual-Control   Outer-Iter.   Inner-Iter.     Column Row Layer    Maximum-Head-Change  Column Row Layer    Maximum-Flux-Residual          L2-NORM 
          0                 1           2             4    7     1       0.2072538604E-01       4    7    1         0.1087943964E+01      0.2576113146E+01
          0                 2           2             4    7     1      -0.2016023770E-02       4    7    1        -0.1087949923E+00      0.2576110883E+00
          0                 3           2             4    7     1       0.1372836582E-03       4    7    1         0.7615647111E-02      0.1803272692E-01
          0                 4           1             4    7     1      -0.5462645761E-05       4    7    1        -0.3114804258E-03      0.7375465715E-03

    ------------------------------------------------
       NWT REQUIRED            4 OUTER ITERATIONS 
       AND A TOTAL OF          7 INNER ITERATIONS.
    ------------------------------------------------

 NO OUTPUT CONTROL FOR STRESS PERIOD   26   TIME STEP   15
 
 SOLVING FOR HEAD 
                                                   Max.-Head-Change                         Max.-Flux-Residual
  Residual-Control   Outer-Iter.   Inner-Iter.     Column Row Layer    Maximum-Head-Change  Column Row Layer    Maximum-Flux-Residual          L2-NORM 
          0                 1           2             4    7     1       0.2051500391E-01       4    7    1         0.1076842302E+01      0.2555636315E+01
          0                 2           2             4    7     1      -0.1995559127E-02       4    7    1        -0.1076848128E+00      0.2555633424E+00
          0                 3           2             4    7     1       0.1358900941E-03       4    7    1         0.7537934640E-02      0.1788937659E-01
          0                 4           1             4    7     1      -0.5407194898E-05       4    7    1        -0.3083019983E-03      0.7316721792E-03

    ------------------------------------------------
       NWT REQUIRED            4 OUTER ITERATIONS 
       AND A TOTAL OF          7 INNER ITERATIONS.
    ------------------------------------------------

 NO OUTPUT CONTROL FOR STRESS PERIOD   26   TIME STEP   16
 
 SOLVING FOR HEAD 
                                                   Max.-Head-Change                         Max.-Flux-Residual
  Residual-Control   Outer-Iter.   Inner-Iter.     Column Row Layer    Maximum-Head-Change  Column Row Layer    Maximum-Flux-Residual          L2-NORM 
          0                 1           2             4    7     1       0.2030799937E-01       4    7    1         0.1065919661E+01      0.2535442576E+01
          0                 2           2             4    7     1      -0.1975423037E-02       4    7    1        -0.1065925357E+00      0.2535439320E+00
          0                 3           2             4    7     1       0.1345189025E-03       4    7    1         0.7461475318E-02      0.1774800325E-01
          0                 4           1             4    7     1      -0.5352633741E-05       4    7    1        -0.3051747956E-03      0.7258925333E-03

    ------------------------------------------------
       NWT REQUIRED            4 OUTER ITERATIONS 
       AND A TOTAL OF          7 INNER ITERATIONS.
    ------------------------------------------------

 NO OUTPUT CONTROL FOR STRESS PERIOD   26   TIME STEP   17
 
 SOLVING FOR HEAD 
                                                   Max.-Head-Change                         Max.-Flux-Residual
  Residual-Control   Outer-Iter.   Inner-Iter.     Column Row Layer    Maximum-Head-Change  Column Row Layer    Maximum-Flux-Residual          L2-NORM 
          0                 1           2             4    7     1       0.2010415999E-01       4    7    1         0.1055164851E+01      0.2515517593E+01
          0                 2           2             4    7     1      -0.1955594836E-02       4    7    1        -0.1055170419E+00      0.2515513798E+00
          0                 3           2             4    7     1       0.1331686776E-03       4    7    1         0.7386190866E-02      0.1760852335E-01
          0                 4           1             4    7     1      -0.5298906683E-05       4    7    1        -0.3020956487E-03      0.7201799818E-03

    ------------------------------------------------
       NWT REQUIRED            4 OUTER ITERATIONS 
       AND A TOTAL OF          7 INNER ITERATIONS.
    ------------------------------------------------

 NO OUTPUT CONTROL FOR STRESS PERIOD   26   TIME STEP   18
 
 SOLVING FOR HEAD 
                                                   Max.-Head-Change                         Max.-Flux-Residual
  Residual-Control   Outer-Iter.   Inner-Iter.     Column Row Layer    Maximum-Head-Change  Column Row Layer    Maximum-Flux-Residual          L2-NORM 
          0                 1           2             4    7     1       0.1990328550E-01       4    7    1         0.1044566855E+01      0.2495861049E+01
          0                 2           2             4    7     1      -0.1936055042E-02       4    7    1        -0.1044572300E+00      0.2495856947E+00
          0                 3           2             4    7     1       0.1318380916E-03       4    7    1         0.7312004107E-02      0.1747092332E-01
          0                 4           1             4    7     1      -0.5245961342E-05       4    7    1        -0.2990614041E-03      0.7145632108E-03

    ------------------------------------------------
       NWT REQUIRED            4 OUTER ITERATIONS 
       AND A TOTAL OF          7 INNER ITERATIONS.
    ------------------------------------------------

 NO OUTPUT CONTROL FOR STRESS PERIOD   26   TIME STEP   19
 
 SOLVING FOR HEAD 
                                                   Max.-Head-Change                         Max.-Flux-Residual
  Residual-Control   Outer-Iter.   Inner-Iter.     Column Row Layer    Maximum-Head-Change  Column Row Layer    Maximum-Flux-Residual          L2-NORM 
          0                 1           2             4    7     1       0.1970545090E-01       4    7    1         0.1034129877E+01      0.2476465915E+01
          0                 2           2             4    7     1      -0.1916839889E-02       4    7    1        -0.1034135200E+00      0.2476866011E+00
          0                 3           2             4    7     1       0.1305296129E-03       4    7    1         0.7238944502E-02      0.1733798571E-01
          0                 4           1             4    7     1      -0.5193895805E-05       4    7    1        -0.2960732663E-03      0.7091256525E-03

    ------------------------------------------------
       NWT REQUIRED            4 OUTER ITERATIONS 
       AND A TOTAL OF          7 INNER ITERATIONS.
    ------------------------------------------------

 NO OUTPUT CONTROL FOR STRESS PERIOD   26   TIME STEP   20
 
 SOLVING FOR HEAD 
                                                   Max.-Head-Change                         Max.-Flux-Residual
  Residual-Control   Outer-Iter.   Inner-Iter.     Column Row Layer    Maximum-Head-Change  Column Row Layer    Maximum-Flux-Residual          L2-NORM 
          0                 1           2             4    7     1       0.1951059688E-01       4    7    1         0.1023856262E+01      0.2457299058E+01
          0                 2           2             4    7     1      -0.1897856808E-02       4    7    1        -0.1023861471E+00      0.2457282776E+00
          0                 3           2             4    7     1       0.1292369370E-03       4    7    1         0.7167028457E-02      0.1720093007E-01
          0                 4           1             4    7     1      -0.5142459211E-05       4    7    1        -0.2931319104E-03      0.7035398512E-03

    ------------------------------------------------
       NWT REQUIRED            4 OUTER ITERATIONS 
       AND A TOTAL OF          7 INNER ITERATIONS.
    ------------------------------------------------

 NO OUTPUT CONTROL FOR STRESS PERIOD   26   TIME STEP   21
 
 SOLVING FOR HEAD 
                                                   Max.-Head-Change                         Max.-Flux-Residual
  Residual-Control   Outer-Iter.   Inner-Iter.     Column Row Layer    Maximum-Head-Change  Column Row Layer    Maximum-Flux-Residual          L2-NORM 
          0                 1           2             4    7     1       0.1931848429E-01       4    7    1         0.1013725683E+01      0.2438341937E+01
          0                 2           2             4    7     1      -0.1879169324E-02       4    7    1        -0.1013730779E+00      0.2438336819E+00
          0                 3           2             4    7     1       0.1279643902E-03       4    7    1         0.7096113697E-02      0.1706828067E-01
          0                 4           1             4    7     1      -0.5091823329E-05       4    7    1        -0.2902314777E-03      0.6980891825E-03

    ------------------------------------------------
       NWT REQUIRED            4 OUTER ITERATIONS 
       AND A TOTAL OF          7 INNER ITERATIONS.
    ------------------------------------------------

 NO OUTPUT CONTROL FOR STRESS PERIOD   26   TIME STEP   22
 
 SOLVING FOR HEAD 
                                                   Max.-Head-Change                         Max.-Flux-Residual
  Residual-Control   Outer-Iter.   Inner-Iter.     Column Row Layer    Maximum-Head-Change  Column Row Layer    Maximum-Flux-Residual          L2-NORM 
          0                 1           2             4    7     1       0.1912930554E-01       4    7    1         0.1003750288E+01      0.2419642152E+01
          0                 2           2             4    7     1      -0.1860767227E-02       4    7    1        -0.1003755274E+00      0.2419636818E+00
          0                 3           2             4    7     1       0.1267112775E-03       4    7    1         0.7026285249E-02      0.1693737921E-01
          0                 4           1             4    7     1      -0.5041960760E-05       4    7    1        -0.2873754920E-03      0.6927402290E-03

    ------------------------------------------------
       NWT REQUIRED            4 OUTER ITERATIONS 
       AND A TOTAL OF          7 INNER ITERATIONS.
    ------------------------------------------------

 NO OUTPUT CONTROL FOR STRESS PERIOD   26   TIME STEP   23
 
 SOLVING FOR HEAD 
                                                   Max.-Head-Change                         Max.-Flux-Residual
  Residual-Control   Outer-Iter.   Inner-Iter.     Column Row Layer    Maximum-Head-Change  Column Row Layer    Maximum-Flux-Residual          L2-NORM 
          0                 1           2             4    7     1       0.1894286540E-01       4    7    1         0.9939197139E+00      0.2401186273E+01
          0                 2           2             4    7     1      -0.1842631525E-02       4    7    1        -0.9939245925E-01      0.2401180547E+00
          0                 3           2             4    7     1       0.1254763051E-03       4    7    1         0.6957470549E-02      0.1680816797E-01
          0                 4           1             4    7     1      -0.4992820155E-05       4    7    1        -0.2845609738E-03      0.6874376417E-03

    ------------------------------------------------
       NWT REQUIRED            4 OUTER ITERATIONS 
       AND A TOTAL OF          7 INNER ITERATIONS.
    ------------------------------------------------

 NO OUTPUT CONTROL FOR STRESS PERIOD   26   TIME STEP   24
 
 SOLVING FOR HEAD 
                                                   Max.-Head-Change                         Max.-Flux-Residual
  Residual-Control   Outer-Iter.   Inner-Iter.     Column Row Layer    Maximum-Head-Change  Column Row Layer    Maximum-Flux-Residual          L2-NORM 
          0                 1           2             4    7     1       0.1875911206E-01       4    7    1         0.9842311320E+00      0.2382974264E+01
          0                 2           2             4    7     1      -0.1824757180E-02       4    7    1        -0.9842359058E-01      0.2382968320E+00
          0                 3           2             4    7     1       0.1242591297E-03       4    7    1         0.6889649802E-02      0.1668070125E-01
          0                 4           1             4    7     1      -0.4944387586E-05       4    7    1        -0.2817870909E-03      0.6822315169E-03

    ------------------------------------------------
       NWT REQUIRED            4 OUTER ITERATIONS 
       AND A TOTAL OF          7 INNER ITERATIONS.
    ------------------------------------------------

 NO OUTPUT CONTROL FOR STRESS PERIOD   26   TIME STEP   25
 
 SOLVING FOR HEAD 
                                                   Max.-Head-Change                         Max.-Flux-Residual
  Residual-Control   Outer-Iter.   Inner-Iter.     Column Row Layer    Maximum-Head-Change  Column Row Layer    Maximum-Flux-Residual          L2-NORM 
          0                 1           2             4    7     1       0.1857813188E-01       4    7    1         0.9746891513E+00      0.2365004904E+01
          0                 2           2             4    7     1      -0.1807152591E-02       4    7    1        -0.9746938229E-01      0.2364998600E+00
          0                 3           2             4    7     1       0.1230603236E-03       4    7    1         0.6822855281E-02      0.1655490776E-01
          0                 4           1             4    7     1      -0.4896685846E-05       4    7    1        -0.2790551848E-03      0.6770926311E-03

    ------------------------------------------------
       NWT REQUIRED            4 OUTER ITERATIONS 
       AND A TOTAL OF          7 INNER ITERATIONS.
    ------------------------------------------------

 NO OUTPUT CONTROL FOR STRESS PERIOD   26   TIME STEP   26
 
 SOLVING FOR HEAD 
                                                   Max.-Head-Change                         Max.-Flux-Residual
  Residual-Control   Outer-Iter.   Inner-Iter.     Column Row Layer    Maximum-Head-Change  Column Row Layer    Maximum-Flux-Residual          L2-NORM 
          0                 1           2             4    7     1       0.1839959722E-01       4    7    1         0.9652763629E+00      0.2347266408E+01
          0                 2           2             4    7     1      -0.1789785888E-02       4    7    1        -0.9652809346E-01      0.2347259897E+00
          0                 3           1             4    7     1       0.1218777208E-03       4    7    1         0.6756965137E-02      0.1643074048E-01
          0                 4           1             4    7     1      -0.4849632390E-05       4    7    1        -0.2763602795E-03      0.6720152533E-03

    ------------------------------------------------
       NWT REQUIRED            4 OUTER ITERATIONS 
       AND A TOTAL OF          6 INNER ITERATIONS.
    ------------------------------------------------

 NO OUTPUT CONTROL FOR STRESS PERIOD   26   TIME STEP   27
 
 SOLVING FOR HEAD 
                                                   Max.-Head-Change                         Max.-Flux-Residual
  Residual-Control   Outer-Iter.   Inner-Iter.     Column Row Layer    Maximum-Head-Change  Column Row Layer    Maximum-Flux-Residual          L2-NORM 
          0                 1           2             4    7     1       0.1822373722E-01       4    7    1         0.9560049622E+00      0.2329762024E+01
          0                 2           2             4    7     1      -0.1772679361E-02       4    7    1        -0.9560094364E-01      0.2329755185E+00
          0                 3           1             4    7     1       0.1207128311E-03       4    7    1         0.6692064719E-02      0.1630819957E-01
          0                 4           1             4    7     1      -0.4803280636E-05       4    7    1        -0.2737058505E-03      0.6670026066E-03

    ------------------------------------------------
       NWT REQUIRED            4 OUTER ITERATIONS 
       AND A TOTAL OF          6 INNER ITERATIONS.
    ------------------------------------------------

 NO OUTPUT CONTROL FOR STRESS PERIOD   26   TIME STEP   28
 
 SOLVING FOR HEAD 
                                                   Max.-Head-Change                         Max.-Flux-Residual
  Residual-Control   Outer-Iter.   Inner-Iter.     Column Row Layer    Maximum-Head-Change  Column Row Layer    Maximum-Flux-Residual          L2-NORM 
          0                 1           2             4    7     1       0.1805049417E-01       4    7    1         0.9468722385E+00      0.2312484591E+01
          0                 2           2             4    7     1      -0.1755827395E-02       4    7    1        -0.9468766179E-01      0.2312477461E+00
          0                 3           1             4    7     1       0.1195652762E-03       4    7    1         0.6628135054E-02      0.1618724207E-01
          0                 4           1             4    7     1      -0.4757618037E-05       4    7    1        -0.2710911222E-03      0.6620471403E-03

    ------------------------------------------------
       NWT REQUIRED            4 OUTER ITERATIONS 
       AND A TOTAL OF          6 INNER ITERATIONS.
    ------------------------------------------------

 NO OUTPUT CONTROL FOR STRESS PERIOD   26   TIME STEP   29
 
 SOLVING FOR HEAD 
                                                   Max.-Head-Change                         Max.-Flux-Residual
  Residual-Control   Outer-Iter.   Inner-Iter.     Column Row Layer    Maximum-Head-Change  Column Row Layer    Maximum-Flux-Residual          L2-NORM 
          0                 1           2             4    7     1       0.1787968344E-01       4    7    1         0.9378679032E+00      0.2295433092E+01
          0                 2           2             4    7     1      -0.1739212030E-02       4    7    1        -0.9378721899E-01      0.2295425747E+00
          0                 3           1             4    7     1       0.1184338327E-03       4    7    1         0.6565104113E-02      0.1606788758E-01
          0                 4           1             4    7     1      -0.4712596813E-05       4    7    1        -0.2685131558E-03      0.6571995487E-03

    ------------------------------------------------
       NWT REQUIRED            4 OUTER ITERATIONS 
       AND A TOTAL OF          6 INNER ITERATIONS.
    ------------------------------------------------

 NO OUTPUT CONTROL FOR STRESS PERIOD   26   TIME STEP   30



 STREAM LISTING     PERIOD     26   STEP       30

 LAYER ROW COL. STREAM  RCH.  FLOW INTO     FLOW TO   FLOW OUT OF   OVRLND.     DIRECT     STREAM       STREAM     STREAM     STREAM   STREAMBED  STREAMBED
                SEG.NO.  NO.  STRM. RCH.    AQUIFER    STRM. RCH.    RUNOFF     PRECIP       ET          HEAD       DEPTH      WIDTH   CONDCTNC.   GRADIENT

   1    1    1     1     1    8.2501E+00  1.3178E-01   8.1183E+00  0.000E+00  0.000E+00  0.000E+00  1.09389E+03  8.424E-01  7.622E+00  3.430E-02  1.281E+00
   1    2    2     1     2    8.1183E+00  2.0241E-01   7.9159E+00  0.000E+00  0.000E+00  0.000E+00  1.08890E+03  8.367E-01  7.537E+00  5.276E-02  1.279E+00
   1    3    3     1     3    7.9159E+00  1.7099E-01   7.7449E+00  0.000E+00  0.000E+00  0.000E+00  1.08325E+03  8.302E-01  7.440E+00  4.464E-02  1.277E+00
   1    3    4     1     4    7.7449E+00  1.5612E-01   7.5888E+00  0.000E+00  0.000E+00  0.000E+00  1.07823E+03  8.244E-01  7.355E+00  4.082E-02  1.275E+00
   1    4    5     2     1    5.5888E+00  2.7178E-01   5.3170E+00  0.000E+00  0.000E+00  0.000E+00  1.07242E+03  4.843E-01  1.200E+01  7.800E-02  1.161E+00
   1    5    6     2     2    5.3170E+00  2.0828E-01   5.1088E+00  0.000E+00  0.000E+00  0.000E+00  1.06698E+03  4.714E-01  1.200E+01  6.000E-02  1.157E+00
   1    6    6     2     3    5.1088E+00  2.0760E-01   4.9012E+00  0.000E+00  0.000E+00  0.000E+00  1.06225E+03  4.600E-01  1.200E+01  6.000E-02  1.153E+00
   1    7    6     2     4    4.9012E+00  2.0691E-01   4.6943E+00  0.000E+00  0.000E+00  0.000E+00  1.05752E+03  4.485E-01  1.200E+01  6.000E-02  1.150E+00
   1    8    6     2     5    4.6943E+00  2.0621E-01   4.4880E+00  0.000E+00  0.000E+00  0.000E+00  1.05280E+03  4.368E-01  1.200E+01  6.000E-02  1.146E+00
   1    3    5     3     1    2.0000E+00  2.8252E-01   1.7175E+00  0.000E+00  0.000E+00  0.000E+00  1.07555E+03  1.909E+00  9.636E+00  7.227E-02  1.955E+00
   1    3    6     3     2    1.7175E+00  2.4905E-01   1.4684E+00  0.000E+00  0.000E+00  0.000E+00  1.07264E+03  1.727E+00  8.909E+00  6.682E-02  1.864E+00
   1    3    7     3     3    1.4684E+00  1.9718E-01   1.2712E+00  0.000E+00  0.000E+00  0.000E+00  1.06987E+03  1.555E+00  8.218E+00  5.547E-02  1.777E+00
   1    4    8     3     4    1.2712E+00  2.2567E-01   1.0456E+00  0.000E+00  0.000E+00  0.000E+00  1.06682E+03  1.364E+00  7.455E+00  6.709E-02  1.682E+00
   1    5    8     3     5    1.0456E+00  1.5790E-01   8.8768E-01  0.000E+00  0.000E+00  0.000E+00  1.06362E+03  1.164E+00  6.655E+00  4.991E-02  1.582E+00
   1    6    8     3     6    8.8768E-01  5.5980E-02   8.3170E-01  0.000E+00  0.000E+00  0.000E+00  1.06158E+03  1.036E+00  6.145E+00  1.844E-02  1.518E+00
   1    5   10     4     1    1.0000E+01  9.0919E-02   9.9091E+00  0.000E+00  0.000E+00  0.000E+00  1.07836E+03  6.368E-01  1.000E+01  2.500E-02  1.212E+00
   1    5    9     4     2    9.9091E+00  1.8158E-01   9.7275E+00  0.000E+00  0.000E+00  0.000E+00  1.07154E+03  6.315E-01  1.000E+01  5.000E-02  1.211E+00
   1    6    8     4     3    9.7275E+00  1.2689E-01   9.6006E+00  0.000E+00  0.000E+00  0.000E+00  1.06381E+03  6.256E-01  1.000E+01  3.500E-02  1.209E+00
   1    6    8     5     1    1.0432E+01  2.2686E-01   1.0205E+01  0.000E+00  0.000E+00  0.000E+00  1.05868E+03  6.790E-01  1.542E+01  6.166E-02  1.226E+00
   1    7    7     5     2    1.0205E+01  2.7894E-01   9.9265E+00  0.000E+00  0.000E+00  0.000E+00  1.05417E+03  6.732E-01  1.519E+01  7.594E-02  1.224E+00
   1    8    7     5     3    9.9265E+00  1.9221E-01   9.7343E+00  0.000E+00  0.000E+00  0.000E+00  1.04992E+03  6.676E-01  1.497E+01  5.241E-02  1.223E+00
   1    8    6     5     4    9.7343E+00  1.3577E-01   9.5985E+00  0.000E+00  0.000E+00  0.000E+00  1.04691E+03  6.637E-01  1.482E+01  3.706E-02  1.221E+00
   1    9    6     6     1    1.4087E+01  2.3167E-01   1.3855E+01  0.000E+00  0.000E+00  0.000E+00  1.04359E+03  8.612E-01  1.200E+01  6.000E-02  1.287E+00
   1   10    7     6     2    1.3855E+01  2.3116E-01   1.3624E+01  0.000E+00  0.000E+00  0.000E+00  1.03903E+03  8.526E-01  1.200E+01  6.000E-02  1.284E+00
   1   11    7     6     3    1.3624E+01  2.3064E-01   1.3393E+01  0.000E+00  0.000E+00  0.000E+00  1.03448E+03  8.440E-01  1.200E+01  6.000E-02  1.281E+00
   1   12    7     6     4    1.3393E+01  2.3012E-01   1.3163E+01  0.000E+00  0.000E+00  0.000E+00  1.02993E+03  8.353E-01  1.200E+01  6.000E-02  1.278E+00
   1   13    7     6     5    1.3163E+01  3.4333E-03   1.3160E+01  0.000E+00  0.000E+00  0.000E+00  1.02674E+03  8.309E-01  1.200E+01  2.400E-02  4.768E-02
   1   14    9     7     1    1.5000E+02  1.3803E+00   1.4862E+02  0.000E+00  0.000E+00  0.000E+00  1.03987E+03  2.288E+00  5.529E+01  5.593E-01  8.226E-01
   1   13    8     7     2    1.4862E+02  1.9807E+00   1.4664E+02  0.000E+00  0.000E+00  0.000E+00  1.03478E+03  2.279E+00  5.525E+01  6.147E-01  1.074E+00
   1   13    7     7     3    1.4664E+02  1.7260E+00   1.4491E+02  0.000E+00  0.000E+00  0.000E+00  1.02969E+03  2.269E+00  5.521E+01  5.584E-01  1.030E+00
   1   13    6     8     1    1.5807E+02  1.1135E+00   1.5696E+02  0.000E+00  0.000E+00  0.000E+00  1.02474E+03  2.869E+00  4.160E+01  4.239E-01  8.755E-01
   1   13    5     8     2    1.5696E+02  3.7046E-01   1.5659E+02  0.000E+00  0.000E+00  0.000E+00  1.01849E+03  2.864E+00  4.153E+01  4.232E-01  2.918E-01
   1   13    4     8     3    1.5659E+02 -1.7424E+00   1.5833E+02  0.000E+00  0.000E+00  0.000E+00  1.01224E+03  2.869E+00  4.159E+01  4.239E+00 -1.370E-01
   1   13    3     8     4    1.5833E+02 -3.3145E+00   1.6165E+02  0.000E+00  0.000E+00  0.000E+00  1.00601E+03  2.886E+00  4.184E+01  4.264E+00 -2.591E-01
   1   13    2     8     5    1.6165E+02 -2.5009E+00   1.6415E+02  0.000E+00  0.000E+00  0.000E+00  9.99780E+02  2.905E+00  4.213E+01  4.293E+00 -1.942E-01
   1   13    1     8     6    1.6415E+02 -1.9610E+00   1.6611E+02  0.000E+00  0.000E+00  0.000E+00  9.94795E+02  2.920E+00  4.234E+01  2.589E+00 -2.525E-01
   1    8    6     9     1    0.0000E+00  0.0000E+00   0.0000E+00  0.000E+00  0.000E+00  0.000E+00  1.07875E+03  0.000E+00  4.000E+00  0.000E+00  1.000E+00
   1    8    5     9     2    0.0000E+00  0.0000E+00   0.0000E+00  0.000E+00  0.000E+00  0.000E+00  1.07825E+03  0.000E+00  4.000E+00  0.000E+00  1.000E+00





UNSATURATED ZONE PACKAGE VOLUMETRIC BUDGET FOR  TIME STEP    30 STRESS PERIOD   26
  ------------------------------------------------------------------------------



     CUMULATIVE VOLUMES      L**3       RATES FOR THIS TIME STEP      L**3/T
     ------------------                 ------------------------

           IN:                                      IN:
           ---                                      ---
        INFILTRATION =   863575062.8234          INFILTRATION =           0.8475

          OUT:                                     OUT:
          ----                                     ----
              UZF ET =   862060320.4871                UZF ET =           0.7500
        UZF RECHARGE =       73224.0000          UZF RECHARGE =       0.0000E+00

            IN - OUT =     1441518.3364              IN - OUT =       9.7500E-02

          STORAGE:                                 STORAGE:
          --------                                 --------
      STORAGE CHANGE =     1441518.3427        STORAGE CHANGE =       9.7500E-02

 PERCENT DISCREPANCY IS DIFFERENCE BETWEEN IN-OUT MINUS CHANGE IN STORAGE
 DIVIDED BY THE AVERAGE OF IN AND OUT TIMES 100

 PERCENT DISCREPANCY =           0.00     PERCENT DISCREPANCY =           0.00






1
  VOLUMETRIC BUDGET FOR AGRICULTURAL FIELDS AT  END OF TIME STEP   30, STRESS PERIOD  26
  ------------------------------------------------------------------------------

     CUMULATIVE VOLUMES      L**3       RATES FOR THIS TIME STEP      L**3/T
     ------------------                 ------------------------

           IN:                                      IN:
           ---                                      ---
               AG WELLS  =   807776960.0000                 AG WELLS  =           0.0000
      DIVERSION SEGMENTS =           0.0000        DIVERSION SEGMENTS =           0.0000
       IRRIGATION PONDS  =           0.0000         IRRIGATION PONDS  =           0.0000
           GW IRRIGATION =           0.0000             GW IRRIGATION =           0.0000
           SW IRRIGATION =           0.0000             SW IRRIGATION =           0.0000
        SYSTEM LOSSES GW =           0.0000          SYSTEM LOSSES GW =           0.0000
        SYSTEM LOSSES SW =           0.0000          SYSTEM LOSSES SW =           0.0000

                TOTAL IN =   807776960.0000                  TOTAL IN =           0.0000

          OUT:                                     OUT:
          ----                                     ----
               AG WELLS  =           0.0000                 AG WELLS  =           0.0000
      DIVERSION SEGMENTS =           0.0000        DIVERSION SEGMENTS =           0.0000
       IRRIGATION PONDS  =           0.0000         IRRIGATION PONDS  =           0.0000
           GW IRRIGATION =   807776960.0000             GW IRRIGATION =           0.0000
           SW IRRIGATION =           0.0000             SW IRRIGATION =           0.0000
        SYSTEM LOSSES GW =           0.0000          SYSTEM LOSSES GW =           0.0000
        SYSTEM LOSSES SW =           0.0000          SYSTEM LOSSES SW =           0.0000

               TOTAL OUT =   807776960.0000                 TOTAL OUT =           0.0000

                IN - OUT =           0.0000                  IN - OUT =           0.0000

     PERCENT DISCREPANCY =           0.00         PERCENT DISCREPANCY =           0.00



1
  VOLUMETRIC BUDGET FOR ENTIRE MODEL AT END OF TIME STEP   30, STRESS PERIOD  26
  ------------------------------------------------------------------------------

     CUMULATIVE VOLUMES      L**3       RATES FOR THIS TIME STEP      L**3/T
     ------------------                 ------------------------

           IN:                                      IN:
           ---                                      ---
             STORAGE     =  1087377408.0000               STORAGE     =           6.0604
       CONSTANT HEAD     =           0.0000         CONSTANT HEAD     =           0.0000
     HEAD DEP BOUNDS     =    18968512.0000       HEAD DEP BOUNDS     =           0.2888
      STREAM LEAKAGE     =   778479488.0000        STREAM LEAKAGE     =          11.6615
        UZF RECHARGE     =       73223.9531          UZF RECHARGE     =           0.0000
               GW ET     =           0.0000                 GW ET     =           0.0000
     SURFACE LEAKAGE     =           0.0000       SURFACE LEAKAGE     =           0.0000
           AG WELLS      =           0.0000             AG WELLS      =           0.0000

                TOTAL IN =  1884898688.0000                  TOTAL IN =          18.0108

          OUT:                                     OUT:
          ----                                     ----
             STORAGE     =   397650336.0000               STORAGE     =           8.2049
       CONSTANT HEAD     =           0.0000         CONSTANT HEAD     =           0.0000
     HEAD DEP BOUNDS     =    19012214.0000       HEAD DEP BOUNDS     =           0.2870
      STREAM LEAKAGE     =   660460352.0000        STREAM LEAKAGE     =           9.5188
        UZF RECHARGE     =           0.0000          UZF RECHARGE     =           0.0000
               GW ET     =           0.0000                 GW ET     =           0.0000
     SURFACE LEAKAGE     =           0.0000       SURFACE LEAKAGE     =           0.0000
           AG WELLS      =   807776960.0000             AG WELLS      =           0.0000

               TOTAL OUT =  1884899840.0000                 TOTAL OUT =          18.0107

                IN - OUT =       -1152.0000                  IN - OUT =       1.3351E-05

     PERCENT DISCREPANCY =          -0.00         PERCENT DISCREPANCY =           0.00






         TIME SUMMARY AT END OF TIME STEP   30 IN STRESS PERIOD   26
                    SECONDS     MINUTES      HOURS       DAYS        YEARS
                    -----------------------------------------------------------
   TIME STEP LENGTH  87667.      1461.1      24.352      1.0147     2.77799E-03
 STRESS PERIOD TIME 2.63000E+06  43833.      730.56      30.440     8.33397E-02
         TOTAL TIME 6.58368E+07 1.09728E+06  18288.      762.00      2.0862    
1
1
                            STRESS PERIOD NO.   27, LENGTH =   2630000.    
                            -----------------------------------------------

                              NUMBER OF TIME STEPS =    30

                               MULTIPLIER FOR DELT =     1.000

                            INITIAL TIME STEP SIZE =   87666.66    

 REUSING NON-PARAMETER GHB CELLS FROM LAST STRESS PERIOD

      2 GHB CELLS

 REUSING STREAM SEGMENT DATA FROM LAST STRESS PERIOD



            AREAL INFILTRATION RATE
 READING ON UNIT   19 WITH FORMAT: (FREE)              

            1           2           3           4           5           6           7           8           9          10
 ........................................................................................................................
   1   1.0000E-10  2.0000E-10   0.000       0.000       0.000       0.000       0.000       0.000       0.000       0.000    
   2   2.0000E-10  1.0000E-10  2.0000E-10   0.000       0.000      8.0000E-10  8.0000E-10  5.0000E-10   0.000       0.000    
   3    0.000      5.0000E-10  1.0000E-10  1.0000E-10  8.0000E-10  8.0000E-10  5.0000E-10  5.0000E-10   0.000       0.000    
   4   8.0000E-10  5.0000E-10  1.0000E-10  1.0000E-10  1.0000E-10  1.0000E-10  1.0000E-10  1.0000E-10  2.0000E-10   0.000    
   5   8.0000E-10  5.0000E-10  1.0000E-10  1.0000E-10  1.0000E-10  1.0000E-10  1.0000E-10  1.0000E-10  1.0000E-10  1.0000E-10
   6   8.0000E-10  5.0000E-10  5.0000E-10  2.0000E-10  2.0000E-10  1.0000E-10  1.0000E-10  1.0000E-10  1.0000E-10  5.0000E-10
   7   8.0000E-10  5.0000E-10  5.0000E-10  2.0000E-10  2.0000E-10  1.0000E-10  1.0000E-10  2.0000E-10  2.0000E-10   0.000    
   8    0.000      5.0000E-10  5.0000E-10  2.0000E-10  2.0000E-10  1.0000E-10  1.0000E-10  2.0000E-10  5.0000E-10   0.000    
   9    0.000      5.0000E-10  5.0000E-10  2.0000E-10  2.0000E-10  1.0000E-10  1.0000E-10  2.0000E-10  5.0000E-10   0.000    
  10    0.000      5.0000E-10  5.0000E-10  2.0000E-10  2.0000E-10  1.0000E-10  1.0000E-10  2.0000E-10  5.0000E-10  8.0000E-10
  11    0.000      1.0000E-10  1.0000E-10  1.0000E-10  1.0000E-10  1.0000E-10  1.0000E-10  2.0000E-10  5.0000E-10   0.000    
  12   1.0000E-10  1.0000E-10  1.0000E-10  1.0000E-10  1.0000E-10  1.0000E-10  1.0000E-10  1.0000E-10  2.0000E-10   0.000    
  13   1.0000E-10  1.0000E-10  2.0000E-10  2.0000E-10  2.0000E-10  2.0000E-10  2.0000E-10  1.0000E-10  1.0000E-10   0.000    
  14    0.000      2.0000E-10  5.0000E-10  5.0000E-10  5.0000E-10  5.0000E-10  5.0000E-10  2.0000E-10  1.0000E-10   0.000    
  15    0.000       0.000      8.0000E-10  8.0000E-10  8.0000E-10  8.0000E-10   0.000       0.000       0.000       0.000    

                  ET RATE =  5.000000E-10

 USING ET EXTINCTION DEPTH FROM PREVIOUS STRESS PERIOD. CURRENT PERIOD IS:      27

 USING EXTINCTION WATER CONTENT FROM PREVIOUS STRESS PERIOD. CURRENT PERIOD IS:      27

 USING AIR ENTRY PRESSURE FROM PREVIOUS STRESS PERIOD. CURRENT PERIOD IS:      27

 USING ROOT PRESSURE HEAD FROM PREVIOUS STRESS PERIOD. CURRENT PERIOD IS:      27

 USING ROOT ACTIVITY FROM PREVIOUS STRESS PERIOD. CURRENT PERIOD IS:      27

 PROCESSING AG STRESS PERIOD DATA

 READING AG STRESS PERIOD DATA

 READING IRRIGATION SEGMENT

 READING IRRIGATION WELL

 READING SUPPLEMENTAL WELL

 NO IRRPOND OR REUSING IRRPOND DATA FROM LAST STRESS PERIOD

 END PROCESSING AG STRESS PERIOD DATA OPTIONS
 
 SOLVING FOR HEAD 
                                                   Max.-Head-Change                         Max.-Flux-Residual
  Residual-Control   Outer-Iter.   Inner-Iter.     Column Row Layer    Maximum-Head-Change  Column Row Layer    Maximum-Flux-Residual          L2-NORM 
          0                 1           2             4    7     1       0.1771125587E-01       4    7    1         0.9289896792E+00      0.2278591085E+01
          0                 2           2             4    7     1      -0.1722828486E-02       4    7    1        -0.9289938754E-01      0.2278583456E+00
          0                 3           1             4    7     1       0.1173181753E-03       4    7    1         0.6502955973E-02      0.1594998636E-01
          0                 4           1             4    7     1      -0.4668203380E-05       4    7    1        -0.2659712850E-03      0.6523489010E-03

    ------------------------------------------------
       NWT REQUIRED            4 OUTER ITERATIONS 
       AND A TOTAL OF          6 INNER ITERATIONS.
    ------------------------------------------------

 NO OUTPUT CONTROL FOR STRESS PERIOD   27   TIME STEP    1
 
 SOLVING FOR HEAD 
                                                   Max.-Head-Change                         Max.-Flux-Residual
  Residual-Control   Outer-Iter.   Inner-Iter.     Column Row Layer    Maximum-Head-Change  Column Row Layer    Maximum-Flux-Residual          L2-NORM 
          0                 1           2             4    7     1       0.1754531749E-01       4    7    1         0.9202423151E+00      0.2260376220E+01
          0                 2           2             4    7     1      -0.1706687074E-02       4    7    1        -0.9202464228E-01      0.2260377630E+00
          0                 3           1             4    7     1       0.1162190061E-03       4    7    1         0.6441723850E-02      0.1582261822E-01
          0                 4           1             4    7     1      -0.4624466750E-05       4    7    1        -0.2634668904E-03      0.6471427678E-03

    ------------------------------------------------
       NWT REQUIRED            4 OUTER ITERATIONS 
       AND A TOTAL OF          6 INNER ITERATIONS.
    ------------------------------------------------

 NO OUTPUT CONTROL FOR STRESS PERIOD   27   TIME STEP    2
 
 SOLVING FOR HEAD 
                                                   Max.-Head-Change                         Max.-Flux-Residual
  Residual-Control   Outer-Iter.   Inner-Iter.     Column Row Layer    Maximum-Head-Change  Column Row Layer    Maximum-Flux-Residual          L2-NORM 
          0                 1           2             4    7     1       0.1738175237E-01       4    7    1         0.9116167143E+00      0.2256092114E+01
          0                 2           2             4    7     1      -0.1690776519E-02       4    7    1        -0.9116207347E-01      0.2255307827E+00
          0                 3           1             4    7     1       0.1151355578E-03       4    7    1         0.6381344095E-02      0.1577990647E-01
          0                 4           1             4    7     1      -0.4581355378E-05       4    7    1        -0.2609973687E-03      0.6449599670E-03

    ------------------------------------------------
       NWT REQUIRED            4 OUTER ITERATIONS 
       AND A TOTAL OF          6 INNER ITERATIONS.
    ------------------------------------------------

 NO OUTPUT CONTROL FOR STRESS PERIOD   27   TIME STEP    3
 
 SOLVING FOR HEAD 
                                                   Max.-Head-Change                         Max.-Flux-Residual
  Residual-Control   Outer-Iter.   Inner-Iter.     Column Row Layer    Maximum-Head-Change  Column Row Layer    Maximum-Flux-Residual          L2-NORM 
          0                 1           2             4    7     1       0.1722064483E-01       4    7    1         0.9031214608E+00      0.2237532979E+01
          0                 2           2             4    7     1      -0.1677295490E-02       4    7    1        -0.9045682539E-01      0.2237276472E+00
          0                 3           1             4    7     1       0.1142175462E-03       4    7    1         0.6331976472E-02      0.1565485169E-01
          0                 4           1             4    7     1      -0.4544826657E-05       4    7    1        -0.2589782234E-03      0.6399528224E-03

    ------------------------------------------------
       NWT REQUIRED            4 OUTER ITERATIONS 
       AND A TOTAL OF          6 INNER ITERATIONS.
    ------------------------------------------------

 NO OUTPUT CONTROL FOR STRESS PERIOD   27   TIME STEP    4
 
 SOLVING FOR HEAD 
                                                   Max.-Head-Change                         Max.-Flux-Residual
  Residual-Control   Outer-Iter.   Inner-Iter.     Column Row Layer    Maximum-Head-Change  Column Row Layer    Maximum-Flux-Residual          L2-NORM 
          0                 1           2             4    7     1       0.1705622650E-01       4    7    1         0.8946368712E+00      0.2219525069E+01
          0                 2           2             4    7     1      -0.1659111874E-02       4    7    1        -0.8946410003E-01      0.2218966232E+00
          0                 3           1             4    7     1       0.1129793114E-03       4    7    1         0.6262485802E-02      0.1552761091E-01
          0                 4           1             4    7     1      -0.4495556304E-05       4    7    1        -0.2561360520E-03      0.6347161381E-03

    ------------------------------------------------
       NWT REQUIRED            4 OUTER ITERATIONS 
       AND A TOTAL OF          6 INNER ITERATIONS.
    ------------------------------------------------

 NO OUTPUT CONTROL FOR STRESS PERIOD   27   TIME STEP    5
 
 SOLVING FOR HEAD 
                                                   Max.-Head-Change                         Max.-Flux-Residual
  Residual-Control   Outer-Iter.   Inner-Iter.     Column Row Layer    Maximum-Head-Change  Column Row Layer    Maximum-Flux-Residual          L2-NORM 
          0                 1           2             4    7     1       0.1689655549E-01       4    7    1         0.8862068141E+00      0.2202016459E+01
          0                 2           2             4    7     1      -0.1643580095E-02       4    7    1        -0.8862108458E-01      0.2201543316E+00
          0                 3           1             4    7     1       0.1119216562E-03       4    7    1         0.6203474781E-02      0.1540648996E-01
          0                 4           1             4    7     1      -0.4453470949E-05       4    7    1        -0.2537224959E-03      0.6298786736E-03

    ------------------------------------------------
       NWT REQUIRED            4 OUTER ITERATIONS 
       AND A TOTAL OF          6 INNER ITERATIONS.
    ------------------------------------------------

 NO OUTPUT CONTROL FOR STRESS PERIOD   27   TIME STEP    6
 
 SOLVING FOR HEAD 
                                                   Max.-Head-Change                         Max.-Flux-Residual
  Residual-Control   Outer-Iter.   Inner-Iter.     Column Row Layer    Maximum-Head-Change  Column Row Layer    Maximum-Flux-Residual          L2-NORM 
          0                 1           2             4    7     1       0.1673931296E-01       4    7    1         0.8779061643E+00      0.2184972835E+01
          0                 2           2             4    7     1      -0.1628284546E-02       4    7    1        -0.8779101017E-01      0.2184572740E+00
          0                 3           1             4    7     1       0.1108800873E-03       4    7    1         0.6145369650E-02      0.1528806577E-01
          0                 4           1             4    7     1      -0.4412025704E-05       4    7    1        -0.2513459790E-03      0.6250180496E-03

    ------------------------------------------------
       NWT REQUIRED            4 OUTER ITERATIONS 
       AND A TOTAL OF          6 INNER ITERATIONS.
    ------------------------------------------------

 NO OUTPUT CONTROL FOR STRESS PERIOD   27   TIME STEP    7
 
 SOLVING FOR HEAD 
                                                   Max.-Head-Change                         Max.-Flux-Residual
  Residual-Control   Outer-Iter.   Inner-Iter.     Column Row Layer    Maximum-Head-Change  Column Row Layer    Maximum-Flux-Residual          L2-NORM 
          0                 1           2             4    7     1       0.1658471142E-01       4    7    1         0.8697460244E+00      0.2168366337E+01
          0                 2           2             4    7     1      -0.1613245896E-02       4    7    1        -0.8697498702E-01      0.2168032073E+00
          0                 3           1             4    7     1       0.1098560123E-03       4    7    1         0.6088248096E-02      0.1517321744E-01
          0                 4           1             4    7     1      -0.4371277210E-05       4    7    1        -0.2490097061E-03      0.6204678111E-03

    ------------------------------------------------
       NWT REQUIRED            4 OUTER ITERATIONS 
       AND A TOTAL OF          6 INNER ITERATIONS.
    ------------------------------------------------

 NO OUTPUT CONTROL FOR STRESS PERIOD   27   TIME STEP    8
 
 SOLVING FOR HEAD 
                                                   Max.-Head-Change                         Max.-Flux-Residual
  Residual-Control   Outer-Iter.   Inner-Iter.     Column Row Layer    Maximum-Head-Change  Column Row Layer    Maximum-Flux-Residual          L2-NORM 
          0                 1           2             4    7     1       0.1643240779E-01       4    7    1         0.8617082181E+00      0.2152135672E+01
          0                 2           2             4    7     1      -0.1598430774E-02       4    7    1        -0.8617119752E-01      0.2151854725E+00
          0                 3           1             4    7     1       0.1088471587E-03       4    7    1         0.6031982887E-02      0.1506042836E-01
          0                 4           1             4    7     1      -0.4331133483E-05       4    7    1        -0.2467084498E-03      0.6157494267E-03

    ------------------------------------------------
       NWT REQUIRED            4 OUTER ITERATIONS 
       AND A TOTAL OF          6 INNER ITERATIONS.
    ------------------------------------------------

 NO OUTPUT CONTROL FOR STRESS PERIOD   27   TIME STEP    9
 
 SOLVING FOR HEAD 
                                                   Max.-Head-Change                         Max.-Flux-Residual
  Residual-Control   Outer-Iter.   Inner-Iter.     Column Row Layer    Maximum-Head-Change  Column Row Layer    Maximum-Flux-Residual          L2-NORM 
          0                 1           2             4    7     1       0.1628234935E-01       4    7    1         0.8537895550E+00      0.2136262132E+01
          0                 2           2             4    7     1      -0.1583834053E-02       4    7    1        -0.8537932258E-01      0.2136026325E+00
          0                 3           1             4    7     1       0.1078531772E-03       4    7    1         0.5976551688E-02      0.1494992383E-01
          0                 4           1             4    7     1      -0.4291582201E-05       4    7    1        -0.2444413149E-03      0.6113922877E-03

    ------------------------------------------------
       NWT REQUIRED            4 OUTER ITERATIONS 
       AND A TOTAL OF          6 INNER ITERATIONS.
    ------------------------------------------------

 NO OUTPUT CONTROL FOR STRESS PERIOD   27   TIME STEP   10
 
 SOLVING FOR HEAD 
                                                   Max.-Head-Change                         Max.-Flux-Residual
  Residual-Control   Outer-Iter.   Inner-Iter.     Column Row Layer    Maximum-Head-Change  Column Row Layer    Maximum-Flux-Residual          L2-NORM 
          0                 1           2             4    7     1       0.1613474815E-01       4    7    1         0.8460019002E+00      0.2120724221E+01
          0                 2           2             4    7     1      -0.1569476356E-02       4    7    1        -0.8460054876E-01      0.2120525814E+00
          0                 3           1             4    7     1       0.1068754723E-03       4    7    1         0.5922037567E-02      0.1484176122E-01
          0                 4           1             4    7     1      -0.4252678513E-05       4    7    1        -0.2422116816E-03      0.6068875296E-03

    ------------------------------------------------
       NWT REQUIRED            4 OUTER ITERATIONS 
       AND A TOTAL OF          6 INNER ITERATIONS.
    ------------------------------------------------

 NO OUTPUT CONTROL FOR STRESS PERIOD   27   TIME STEP   11
 
 SOLVING FOR HEAD 
                                                   Max.-Head-Change                         Max.-Flux-Residual
  Residual-Control   Outer-Iter.   Inner-Iter.     Column Row Layer    Maximum-Head-Change  Column Row Layer    Maximum-Flux-Residual          L2-NORM 
          0                 1           2             4    7     1       0.1598927113E-01       4    7    1         0.8383270503E+00      0.2105480434E+01
          0                 2           2             4    7     1      -0.1555325290E-02       4    7    1        -0.8383305566E-01      0.2105314871E+00
          0                 3           1             4    7     1       0.1059118385E-03       4    7    1         0.5868313117E-02      0.1473563017E-01
          0                 4           1             4    7     1      -0.4214334690E-05       4    7    1        -0.2400143485E-03      0.6025831901E-03

    ------------------------------------------------
       NWT REQUIRED            4 OUTER ITERATIONS 
       AND A TOTAL OF          6 INNER ITERATIONS.
    ------------------------------------------------

 NO OUTPUT CONTROL FOR STRESS PERIOD   27   TIME STEP   12
 
 SOLVING FOR HEAD 
                                                   Max.-Head-Change                         Max.-Flux-Residual
  Residual-Control   Outer-Iter.   Inner-Iter.     Column Row Layer    Maximum-Head-Change  Column Row Layer    Maximum-Flux-Residual          L2-NORM 
          0                 1           2             4    7     1       0.1584600058E-01       4    7    1         0.8307696361E+00      0.2090515928E+01
          0                 2           2             4    7     1      -0.1541388855E-02       4    7    1        -0.8307730636E-01      0.2090377783E+00
          0                 3           1             4    7     1       0.1049628199E-03       4    7    1         0.5815410695E-02      0.1463133046E-01
          0                 4           1             4    7     1      -0.4176572261E-05       4    7    1        -0.2378506470E-03      0.5983193353E-03

    ------------------------------------------------
       NWT REQUIRED            4 OUTER ITERATIONS 
       AND A TOTAL OF          6 INNER ITERATIONS.
    ------------------------------------------------

 NO OUTPUT CONTROL FOR STRESS PERIOD   27   TIME STEP   13
 
 SOLVING FOR HEAD 
                                                   Max.-Head-Change                         Max.-Flux-Residual
  Residual-Control   Outer-Iter.   Inner-Iter.     Column Row Layer    Maximum-Head-Change  Column Row Layer    Maximum-Flux-Residual          L2-NORM 
          0                 1           2             4    7     1       0.1570488331E-01       4    7    1         0.8233266235E+00      0.2075819138E+01
          0                 2           2             4    7     1      -0.1527661880E-02       4    7    1        -0.8233299746E-01      0.2075703758E+00
          0                 3           1             4    7     1       0.1040280652E-03       4    7    1         0.5763309146E-02      0.1452880109E-01
          0                 4           1             4    7     1      -0.4139377297E-05       4    7    1        -0.2357196827E-03      0.5941320032E-03

    ------------------------------------------------
       NWT REQUIRED            4 OUTER ITERATIONS 
       AND A TOTAL OF          6 INNER ITERATIONS.
    ------------------------------------------------

 NO OUTPUT CONTROL FOR STRESS PERIOD   27   TIME STEP   14
 
 SOLVING FOR HEAD 
                                                   Max.-Head-Change                         Max.-Flux-Residual
  Residual-Control   Outer-Iter.   Inner-Iter.     Column Row Layer    Maximum-Head-Change  Column Row Layer    Maximum-Flux-Residual          L2-NORM 
          0                 1           2             4    7     1       0.1556586858E-01       4    7    1         0.8159952551E+00      0.2061369399E+01
          0                 2           2             4    7     1      -0.1514139427E-02       4    7    1        -0.8159985318E-01      0.2061274279E+00
          0                 3           1             4    7     1       0.1031072372E-03       4    7    1         0.5711989086E-02      0.1442805104E-01
          0                 4           1             4    7     1      -0.4102736672E-05       4    7    1        -0.2336206985E-03      0.5900313470E-03

    ------------------------------------------------
       NWT REQUIRED            4 OUTER ITERATIONS 
       AND A TOTAL OF          6 INNER ITERATIONS.
    ------------------------------------------------

 NO OUTPUT CONTROL FOR STRESS PERIOD   27   TIME STEP   15
 
 SOLVING FOR HEAD 
                                                   Max.-Head-Change                         Max.-Flux-Residual
  Residual-Control   Outer-Iter.   Inner-Iter.     Column Row Layer    Maximum-Head-Change  Column Row Layer    Maximum-Flux-Residual          L2-NORM 
          0                 1           2             4    7     1       0.1542890117E-01       4    7    1         0.8087729008E+00      0.2047155169E+01
          0                 2           2             4    7     1      -0.1500816127E-02       4    7    1        -0.8087761055E-01      0.2047078720E+00
          0                 3           1             4    7     1       0.1021999709E-03       4    7    1         0.5661432156E-02      0.1432899193E-01
          0                 4           1             4    7     1      -0.4066635880E-05       4    7    1        -0.2315529055E-03      0.5860350967E-03

    ------------------------------------------------
       NWT REQUIRED            4 OUTER ITERATIONS 
       AND A TOTAL OF          6 INNER ITERATIONS.
    ------------------------------------------------

 NO OUTPUT CONTROL FOR STRESS PERIOD   27   TIME STEP   16
 
 SOLVING FOR HEAD 
                                                   Max.-Head-Change                         Max.-Flux-Residual
  Residual-Control   Outer-Iter.   Inner-Iter.     Column Row Layer    Maximum-Head-Change  Column Row Layer    Maximum-Flux-Residual          L2-NORM 
          0                 1           2             4    7     1       0.1529393607E-01       4    7    1         0.8016566969E+00      0.2033165354E+01
          0                 2           2             4    7     1      -0.1487687598E-02       4    7    1        -0.8016598315E-01      0.2033099437E+00
          0                 3           1             4    7     1       0.1013059676E-03       4    7    1         0.5611618277E-02      0.1423105096E-01
          0                 4           1             4    7     1      -0.4031062257E-05       4    7    1        -0.2295155027E-03      0.5820563527E-03

    ------------------------------------------------
       NWT REQUIRED            4 OUTER ITERATIONS 
       AND A TOTAL OF          6 INNER ITERATIONS.
    ------------------------------------------------

 NO OUTPUT CONTROL FOR STRESS PERIOD   27   TIME STEP   17
 
 SOLVING FOR HEAD 
                                                   Max.-Head-Change                         Max.-Flux-Residual
  Residual-Control   Outer-Iter.   Inner-Iter.     Column Row Layer    Maximum-Head-Change  Column Row Layer    Maximum-Flux-Residual          L2-NORM 
          0                 1           2             4    7     1       0.1516092664E-01       4    7    1         0.7946443092E+00      0.2019390056E+01
          0                 2           2             4    7     1      -0.1474749307E-02       4    7    1        -0.7946473757E-01      0.2019336300E+00
          0                 3           1             4    7     1       0.1004249195E-03       4    7    1         0.5562531133E-02      0.1413481117E-01
          0                 4           1             4    7     1      -0.3996004982E-05       4    7    1        -0.2275078682E-03      0.5781052302E-03

    ------------------------------------------------
       NWT REQUIRED            4 OUTER ITERATIONS 
       AND A TOTAL OF          6 INNER ITERATIONS.
    ------------------------------------------------

 NO OUTPUT CONTROL FOR STRESS PERIOD   27   TIME STEP   18
 
 SOLVING FOR HEAD 
                                                   Max.-Head-Change                         Max.-Flux-Residual
  Residual-Control   Outer-Iter.   Inner-Iter.     Column Row Layer    Maximum-Head-Change  Column Row Layer    Maximum-Flux-Residual          L2-NORM 
          0                 1           2             4    7     1       0.1502982460E-01       4    7    1         0.7877333208E+00      0.2005814012E+01
          0                 2           2             4    7     1      -0.1461996555E-02       4    7    1        -0.7877363211E-01      0.2005770219E+00
          0                 3           1             4    7     1       0.9955650513E-04       4    7    1         0.5514153794E-02      0.1403997273E-01

    ------------------------------------------------
       NWT REQUIRED            3 OUTER ITERATIONS 
       AND A TOTAL OF          5 INNER ITERATIONS.
    ------------------------------------------------

 NO OUTPUT CONTROL FOR STRESS PERIOD   27   TIME STEP   19
 
 SOLVING FOR HEAD 
                                                   Max.-Head-Change                         Max.-Flux-Residual
  Residual-Control   Outer-Iter.   Inner-Iter.     Column Row Layer    Maximum-Head-Change  Column Row Layer    Maximum-Flux-Residual          L2-NORM 
          0                 1           2             4    7     1       0.1490040891E-01       4    7    1         0.7809114761E+00      0.1992428463E+01
          0                 2           2             4    7     1      -0.1449407842E-02       4    7    1        -0.7809144119E-01      0.1992392441E+00
          0                 3           1             4    7     1       0.9869926129E-04       4    7    1         0.5466400471E-02      0.1394637644E-01

    ------------------------------------------------
       NWT REQUIRED            3 OUTER ITERATIONS 
       AND A TOTAL OF          5 INNER ITERATIONS.
    ------------------------------------------------

 NO OUTPUT CONTROL FOR STRESS PERIOD   27   TIME STEP   20
 
 SOLVING FOR HEAD 
                                                   Max.-Head-Change                         Max.-Flux-Residual
  Residual-Control   Outer-Iter.   Inner-Iter.     Column Row Layer    Maximum-Head-Change  Column Row Layer    Maximum-Flux-Residual          L2-NORM 
          0                 1           2             4    7     1       0.1477295502E-01       4    7    1         0.7741941515E+00      0.1979228769E+01
          0                 2           2             4    7     1      -0.1437009961E-02       4    7    1        -0.7741970247E-01      0.1979194824E+00
          0                 3           1             4    7     1       0.9785501246E-04       4    7    1         0.5419378799E-02      0.1385369948E-01

    ------------------------------------------------
       NWT REQUIRED            3 OUTER ITERATIONS 
       AND A TOTAL OF          5 INNER ITERATIONS.
    ------------------------------------------------

 NO OUTPUT CONTROL FOR STRESS PERIOD   27   TIME STEP   21
 
 SOLVING FOR HEAD 
                                                   Max.-Head-Change                         Max.-Flux-Residual
  Residual-Control   Outer-Iter.   Inner-Iter.     Column Row Layer    Maximum-Head-Change  Column Row Layer    Maximum-Flux-Residual          L2-NORM 
          0                 1           2             4    7     1       0.1464741798E-01       4    7    1         0.7675785425E+00      0.1966219693E+01
          0                 2           2             4    7     1      -0.1424798541E-02       4    7    1        -0.7675813549E-01      0.1966196491E+00
          0                 3           1             4    7     1       0.9702346092E-04       4    7    1         0.5373069156E-02      0.1376313621E-01

    ------------------------------------------------
       NWT REQUIRED            3 OUTER ITERATIONS 
       AND A TOTAL OF          5 INNER ITERATIONS.
    ------------------------------------------------

 NO OUTPUT CONTROL FOR STRESS PERIOD   27   TIME STEP   22
 
 SOLVING FOR HEAD 
                                                   Max.-Head-Change                         Max.-Flux-Residual
  Residual-Control   Outer-Iter.   Inner-Iter.     Column Row Layer    Maximum-Head-Change  Column Row Layer    Maximum-Flux-Residual          L2-NORM 
          0                 1           2             4    7     1       0.1452348236E-01       4    7    1         0.7610477147E+00      0.1953380544E+01
          0                 2           2             4    7     1      -0.1412742896E-02       4    7    1        -0.7610504677E-01      0.1953362836E+00
          0                 3           1             4    7     1       0.9620251684E-04       4    7    1         0.5327352975E-02      0.1367337979E-01

    ------------------------------------------------
       NWT REQUIRED            3 OUTER ITERATIONS 
       AND A TOTAL OF          5 INNER ITERATIONS.
    ------------------------------------------------

 NO OUTPUT CONTROL FOR STRESS PERIOD   27   TIME STEP   23
 
 SOLVING FOR HEAD 
                                                   Max.-Head-Change                         Max.-Flux-Residual
  Residual-Control   Outer-Iter.   Inner-Iter.     Column Row Layer    Maximum-Head-Change  Column Row Layer    Maximum-Flux-Residual          L2-NORM 
          0                 1           2             4    7     1       0.1440125156E-01       4    7    1         0.7546072191E+00      0.1940706945E+01
          0                 2           2             4    7     1      -0.1400853086E-02       4    7    1        -0.7546099145E-01      0.1940692922E+00
          0                 3           1             4    7     1       0.9539286539E-04       4    7    1         0.5282269112E-02      0.1358469712E-01

    ------------------------------------------------
       NWT REQUIRED            3 OUTER ITERATIONS 
       AND A TOTAL OF          5 INNER ITERATIONS.
    ------------------------------------------------

 NO OUTPUT CONTROL FOR STRESS PERIOD   27   TIME STEP   24
 
 SOLVING FOR HEAD 
                                                   Max.-Head-Change                         Max.-Flux-Residual
  Residual-Control   Outer-Iter.   Inner-Iter.     Column Row Layer    Maximum-Head-Change  Column Row Layer    Maximum-Flux-Residual          L2-NORM 
          0                 1           2             4    7     1       0.1428081970E-01       4    7    1         0.7482624183E+00      0.1928205343E+01
          0                 2           2             4    7     1      -0.1389138268E-02       4    7    1        -0.7482650577E-01      0.1928194356E+00
          0                 3           1             4    7     1       0.9459513079E-04       4    7    1         0.5237855172E-02      0.1349723552E-01

    ------------------------------------------------
       NWT REQUIRED            3 OUTER ITERATIONS 
       AND A TOTAL OF          5 INNER ITERATIONS.
    ------------------------------------------------

 NO OUTPUT CONTROL FOR STRESS PERIOD   27   TIME STEP   25
 
 SOLVING FOR HEAD 
                                                   Max.-Head-Change                         Max.-Flux-Residual
  Residual-Control   Outer-Iter.   Inner-Iter.     Column Row Layer    Maximum-Head-Change  Column Row Layer    Maximum-Flux-Residual          L2-NORM 
          0                 1           2             4    7     1       0.1416200990E-01       4    7    1         0.7420035869E+00      0.1915856561E+01
          0                 2           2             4    7     1      -0.1377581233E-02       4    7    1        -0.7420061717E-01      0.1915848151E+00
          0                 3           1             4    7     1       0.9380814033E-04       4    7    1         0.5194043003E-02      0.1341083424E-01

    ------------------------------------------------
       NWT REQUIRED            3 OUTER ITERATIONS 
       AND A TOTAL OF          5 INNER ITERATIONS.
    ------------------------------------------------

 NO OUTPUT CONTROL FOR STRESS PERIOD   27   TIME STEP   26
 
 SOLVING FOR HEAD 
                                                   Max.-Head-Change                         Max.-Flux-Residual
  Residual-Control   Outer-Iter.   Inner-Iter.     Column Row Layer    Maximum-Head-Change  Column Row Layer    Maximum-Flux-Residual          L2-NORM 
          0                 1           2             4    7     1       0.1404478896E-01       4    7    1         0.7358288559E+00      0.1903668985E+01
          0                 2           2             4    7     1      -0.1366178752E-02       4    7    1        -0.7358313875E-01      0.1903662853E+00
          0                 3           1             4    7     1       0.9303167461E-04       4    7    1         0.5150819553E-02      0.1332556200E-01

    ------------------------------------------------
       NWT REQUIRED            3 OUTER ITERATIONS 
       AND A TOTAL OF          5 INNER ITERATIONS.
    ------------------------------------------------

 NO OUTPUT CONTROL FOR STRESS PERIOD   27   TIME STEP   27
 
 SOLVING FOR HEAD 
                                                   Max.-Head-Change                         Max.-Flux-Residual
  Residual-Control   Outer-Iter.   Inner-Iter.     Column Row Layer    Maximum-Head-Change  Column Row Layer    Maximum-Flux-Residual          L2-NORM 
          0                 1           2             4    7     1       0.1392912528E-01       4    7    1         0.7297365039E+00      0.1891629410E+01
          0                 2           2             4    7     1      -0.1354927754E-02       4    7    1        -0.7297389835E-01      0.1891625004E+00
          0                 3           1             4    7     1       0.9226552383E-04       4    7    1         0.5108172744E-02      0.1324130267E-01

    ------------------------------------------------
       NWT REQUIRED            3 OUTER ITERATIONS 
       AND A TOTAL OF          5 INNER ITERATIONS.
    ------------------------------------------------

 NO OUTPUT CONTROL FOR STRESS PERIOD   27   TIME STEP   28
 
 SOLVING FOR HEAD 
                                                   Max.-Head-Change                         Max.-Flux-Residual
  Residual-Control   Outer-Iter.   Inner-Iter.     Column Row Layer    Maximum-Head-Change  Column Row Layer    Maximum-Flux-Residual          L2-NORM 
          0                 1           2             4    7     1       0.1381498078E-01       4    7    1         0.7237248934E+00      0.1879738940E+01
          0                 2           2             4    7     1      -0.1343824532E-02       4    7    1        -0.7237273227E-01      0.1879736242E+00
          0                 3           1             4    7     1       0.9150943615E-04       4    7    1         0.5066091145E-02      0.1315813316E-01

    ------------------------------------------------
       NWT REQUIRED            3 OUTER ITERATIONS 
       AND A TOTAL OF          5 INNER ITERATIONS.
    ------------------------------------------------

 NO OUTPUT CONTROL FOR STRESS PERIOD   27   TIME STEP   29
 
 SOLVING FOR HEAD 
                                                   Max.-Head-Change                         Max.-Flux-Residual
  Residual-Control   Outer-Iter.   Inner-Iter.     Column Row Layer    Maximum-Head-Change  Column Row Layer    Maximum-Flux-Residual          L2-NORM 
          0                 1           2             4    7     1       0.1370246096E-01       4    7    1         0.7177993534E+00      0.1867995584E+01
          0                 2           2             4    7     1      -0.1332879349E-02       4    7    1        -0.7178017336E-01      0.1867993726E+00
          0                 3           1             4    7     1       0.9076411107E-04       4    7    1         0.5024612071E-02      0.1307591202E-01

    ------------------------------------------------
       NWT REQUIRED            3 OUTER ITERATIONS 
       AND A TOTAL OF          5 INNER ITERATIONS.
    ------------------------------------------------

 NO OUTPUT CONTROL FOR STRESS PERIOD   27   TIME STEP   30



 STREAM LISTING     PERIOD     27   STEP       30

 LAYER ROW COL. STREAM  RCH.  FLOW INTO     FLOW TO   FLOW OUT OF   OVRLND.     DIRECT     STREAM       STREAM     STREAM     STREAM   STREAMBED  STREAMBED
                SEG.NO.  NO.  STRM. RCH.    AQUIFER    STRM. RCH.    RUNOFF     PRECIP       ET          HEAD       DEPTH      WIDTH   CONDCTNC.   GRADIENT

   1    1    1     1     1    1.5750E+01  1.9239E-01   1.5557E+01  0.000E+00  0.000E+00  0.000E+00  1.09407E+03  1.025E+00  1.062E+01  4.780E-02  1.342E+00
   1    2    2     1     2    1.5557E+01  2.9659E-01   1.5261E+01  0.000E+00  0.000E+00  0.000E+00  1.08908E+03  1.020E+00  1.054E+01  7.378E-02  1.340E+00
   1    3    3     1     3    1.5261E+01  2.5163E-01   1.5009E+01  0.000E+00  0.000E+00  0.000E+00  1.08343E+03  1.015E+00  1.045E+01  6.268E-02  1.338E+00
   1    3    4     1     4    1.5009E+01  2.3063E-01   1.4778E+01  0.000E+00  0.000E+00  0.000E+00  1.07842E+03  1.010E+00  1.036E+01  5.751E-02  1.337E+00
   1    4    5     2     1    1.2778E+01  2.9653E-01   1.2482E+01  0.000E+00  0.000E+00  0.000E+00  1.07274E+03  8.017E-01  1.200E+01  7.800E-02  1.267E+00
   1    5    6     2     2    1.2482E+01  2.2750E-01   1.2254E+01  0.000E+00  0.000E+00  0.000E+00  1.06730E+03  7.916E-01  1.200E+01  6.000E-02  1.264E+00
   1    6    6     2     3    1.2254E+01  2.2697E-01   1.2027E+01  0.000E+00  0.000E+00  0.000E+00  1.06258E+03  7.829E-01  1.200E+01  6.000E-02  1.261E+00
   1    7    6     2     4    1.2027E+01  2.2644E-01   1.1801E+01  0.000E+00  0.000E+00  0.000E+00  1.05785E+03  7.741E-01  1.200E+01  6.000E-02  1.258E+00
   1    8    6     2     5    1.1801E+01  2.2591E-01   1.1575E+01  0.000E+00  0.000E+00  0.000E+00  1.05312E+03  7.652E-01  1.200E+01  6.000E-02  1.255E+00
   1    3    5     3     1    2.0000E+00  2.8252E-01   1.7175E+00  0.000E+00  0.000E+00  0.000E+00  1.07555E+03  1.909E+00  9.636E+00  7.227E-02  1.955E+00
   1    3    6     3     2    1.7175E+00  2.4905E-01   1.4684E+00  0.000E+00  0.000E+00  0.000E+00  1.07264E+03  1.727E+00  8.909E+00  6.682E-02  1.864E+00
   1    3    7     3     3    1.4684E+00  1.9718E-01   1.2712E+00  0.000E+00  0.000E+00  0.000E+00  1.06987E+03  1.555E+00  8.218E+00  5.547E-02  1.777E+00
   1    4    8     3     4    1.2712E+00  2.2567E-01   1.0456E+00  0.000E+00  0.000E+00  0.000E+00  1.06682E+03  1.364E+00  7.455E+00  6.709E-02  1.682E+00
   1    5    8     3     5    1.0456E+00  1.5790E-01   8.8768E-01  0.000E+00  0.000E+00  0.000E+00  1.06362E+03  1.164E+00  6.655E+00  4.991E-02  1.582E+00
   1    6    8     3     6    8.8768E-01  5.5980E-02   8.3170E-01  0.000E+00  0.000E+00  0.000E+00  1.06158E+03  1.036E+00  6.145E+00  1.844E-02  1.518E+00
   1    5   10     4     1    1.0000E+01  9.0919E-02   9.9091E+00  0.000E+00  0.000E+00  0.000E+00  1.07836E+03  6.368E-01  1.000E+01  2.500E-02  1.212E+00
   1    5    9     4     2    9.9091E+00  1.8158E-01   9.7275E+00  0.000E+00  0.000E+00  0.000E+00  1.07154E+03  6.315E-01  1.000E+01  5.000E-02  1.211E+00
   1    6    8     4     3    9.7275E+00  1.2689E-01   9.6006E+00  0.000E+00  0.000E+00  0.000E+00  1.06381E+03  6.256E-01  1.000E+01  3.500E-02  1.209E+00
   1    6    8     5     1    1.0432E+01  2.2686E-01   1.0205E+01  0.000E+00  0.000E+00  0.000E+00  1.05868E+03  6.790E-01  1.542E+01  6.166E-02  1.226E+00
   1    7    7     5     2    1.0205E+01  2.7894E-01   9.9265E+00  0.000E+00  0.000E+00  0.000E+00  1.05417E+03  6.732E-01  1.519E+01  7.594E-02  1.224E+00
   1    8    7     5     3    9.9265E+00  1.9221E-01   9.7343E+00  0.000E+00  0.000E+00  0.000E+00  1.04992E+03  6.676E-01  1.497E+01  5.241E-02  1.223E+00
   1    8    6     5     4    9.7343E+00  1.3577E-01   9.5985E+00  0.000E+00  0.000E+00  0.000E+00  1.04691E+03  6.637E-01  1.482E+01  3.706E-02  1.221E+00
   1    9    6     6     1    2.1173E+01  2.4608E-01   2.0927E+01  0.000E+00  0.000E+00  0.000E+00  1.04383E+03  1.101E+00  1.200E+01  6.000E-02  1.367E+00
   1   10    7     6     2    2.0927E+01  2.4562E-01   2.0682E+01  0.000E+00  0.000E+00  0.000E+00  1.03928E+03  1.094E+00  1.200E+01  6.000E-02  1.365E+00
   1   11    7     6     3    2.0682E+01  2.4515E-01   2.0437E+01  0.000E+00  0.000E+00  0.000E+00  1.03472E+03  1.086E+00  1.200E+01  6.000E-02  1.362E+00
   1   12    7     6     4    2.0437E+01  2.4468E-01   2.0192E+01  0.000E+00  0.000E+00  0.000E+00  1.03017E+03  1.078E+00  1.200E+01  6.000E-02  1.359E+00
   1   13    7     6     5    2.0192E+01  9.7847E-03   2.0182E+01  0.000E+00  0.000E+00  0.000E+00  1.02698E+03  1.074E+00  1.200E+01  2.400E-02  1.359E-01
   1   14    9     7     1    1.5000E+02  1.3818E+00   1.4862E+02  0.000E+00  0.000E+00  0.000E+00  1.03987E+03  2.288E+00  5.529E+01  5.593E-01  8.235E-01
   1   13    8     7     2    1.4862E+02  1.9875E+00   1.4663E+02  0.000E+00  0.000E+00  0.000E+00  1.03478E+03  2.279E+00  5.525E+01  6.147E-01  1.078E+00
   1   13    7     7     3    1.4663E+02  1.7380E+00   1.4489E+02  0.000E+00  0.000E+00  0.000E+00  1.02969E+03  2.269E+00  5.521E+01  5.584E-01  1.038E+00
   1   13    6     8     1    1.6507E+02  1.1595E+00   1.6392E+02  0.000E+00  0.000E+00  0.000E+00  1.02479E+03  2.916E+00  4.228E+01  4.309E-01  8.971E-01
   1   13    5     8     2    1.6392E+02  4.0219E-01   1.6351E+02  0.000E+00  0.000E+00  0.000E+00  1.01854E+03  2.911E+00  4.221E+01  4.301E-01  3.117E-01
   1   13    4     8     3    1.6351E+02 -1.6595E+00   1.6517E+02  0.000E+00  0.000E+00  0.000E+00  1.01229E+03  2.915E+00  4.227E+01  4.307E+00 -1.284E-01
   1   13    3     8     4    1.6517E+02 -3.2666E+00   1.6844E+02  0.000E+00  0.000E+00  0.000E+00  1.00606E+03  2.931E+00  4.250E+01  4.331E+00 -2.514E-01
   1   13    2     8     5    1.6844E+02 -2.4700E+00   1.7091E+02  0.000E+00  0.000E+00  0.000E+00  9.99825E+02  2.950E+00  4.278E+01  4.359E+00 -1.889E-01
   1   13    1     8     6    1.7091E+02 -1.9363E+00   1.7285E+02  0.000E+00  0.000E+00  0.000E+00  9.94839E+02  2.964E+00  4.298E+01  2.628E+00 -2.456E-01
   1    8    6     9     1    0.0000E+00  0.0000E+00   0.0000E+00  0.000E+00  0.000E+00  0.000E+00  1.07875E+03  0.000E+00  4.000E+00  0.000E+00  1.000E+00
   1    8    5     9     2    0.0000E+00  0.0000E+00   0.0000E+00  0.000E+00  0.000E+00  0.000E+00  1.07825E+03  0.000E+00  4.000E+00  0.000E+00  1.000E+00





UNSATURATED ZONE PACKAGE VOLUMETRIC BUDGET FOR  TIME STEP    30 STRESS PERIOD   27
  ------------------------------------------------------------------------------



     CUMULATIVE VOLUMES      L**3       RATES FOR THIS TIME STEP      L**3/T
     ------------------                 ------------------------

           IN:                                      IN:
           ---                                      ---
        INFILTRATION =   865803987.6962          INFILTRATION =           0.8475

          OUT:                                     OUT:
          ----                                     ----
              UZF ET =   864032820.3672                UZF ET =           0.7500
        UZF RECHARGE =       73224.0000          UZF RECHARGE =       0.0000E+00

            IN - OUT =     1697943.3289              IN - OUT =       9.7500E-02

          STORAGE:                                 STORAGE:
          --------                                 --------
      STORAGE CHANGE =     1697943.3568        STORAGE CHANGE =       9.7500E-02

 PERCENT DISCREPANCY IS DIFFERENCE BETWEEN IN-OUT MINUS CHANGE IN STORAGE
 DIVIDED BY THE AVERAGE OF IN AND OUT TIMES 100

 PERCENT DISCREPANCY =           0.00     PERCENT DISCREPANCY =           0.00






1
  VOLUMETRIC BUDGET FOR AGRICULTURAL FIELDS AT  END OF TIME STEP   30, STRESS PERIOD  27
  ------------------------------------------------------------------------------

     CUMULATIVE VOLUMES      L**3       RATES FOR THIS TIME STEP      L**3/T
     ------------------                 ------------------------

           IN:                                      IN:
           ---                                      ---
               AG WELLS  =   807776960.0000                 AG WELLS  =           0.0000
      DIVERSION SEGMENTS =           0.0000        DIVERSION SEGMENTS =           0.0000
       IRRIGATION PONDS  =           0.0000         IRRIGATION PONDS  =           0.0000
           GW IRRIGATION =           0.0000             GW IRRIGATION =           0.0000
           SW IRRIGATION =           0.0000             SW IRRIGATION =           0.0000
        SYSTEM LOSSES GW =           0.0000          SYSTEM LOSSES GW =           0.0000
        SYSTEM LOSSES SW =           0.0000          SYSTEM LOSSES SW =           0.0000

                TOTAL IN =   807776960.0000                  TOTAL IN =           0.0000

          OUT:                                     OUT:
          ----                                     ----
               AG WELLS  =           0.0000                 AG WELLS  =           0.0000
      DIVERSION SEGMENTS =           0.0000        DIVERSION SEGMENTS =           0.0000
       IRRIGATION PONDS  =           0.0000         IRRIGATION PONDS  =           0.0000
           GW IRRIGATION =   807776960.0000             GW IRRIGATION =           0.0000
           SW IRRIGATION =           0.0000             SW IRRIGATION =           0.0000
        SYSTEM LOSSES GW =           0.0000          SYSTEM LOSSES GW =           0.0000
        SYSTEM LOSSES SW =           0.0000          SYSTEM LOSSES SW =           0.0000

               TOTAL OUT =   807776960.0000                 TOTAL OUT =           0.0000

                IN - OUT =           0.0000                  IN - OUT =           0.0000

     PERCENT DISCREPANCY =           0.00         PERCENT DISCREPANCY =           0.00



1
  VOLUMETRIC BUDGET FOR ENTIRE MODEL AT END OF TIME STEP   30, STRESS PERIOD  27
  ------------------------------------------------------------------------------

     CUMULATIVE VOLUMES      L**3       RATES FOR THIS TIME STEP      L**3/T
     ------------------                 ------------------------

           IN:                                      IN:
           ---                                      ---
             STORAGE     =  1100762112.0000               STORAGE     =           4.5674
       CONSTANT HEAD     =           0.0000         CONSTANT HEAD     =           0.0000
     HEAD DEP BOUNDS     =    19728160.0000       HEAD DEP BOUNDS     =           0.2889
      STREAM LEAKAGE     =   810532160.0000        STREAM LEAKAGE     =          12.2364
        UZF RECHARGE     =       73223.9531          UZF RECHARGE     =           0.0000
               GW ET     =           0.0000                 GW ET     =           0.0000
     SURFACE LEAKAGE     =           0.0000       SURFACE LEAKAGE     =           0.0000
           AG WELLS      =           0.0000             AG WELLS      =           0.0000

                TOTAL IN =  1931095552.0000                  TOTAL IN =          17.0926

          OUT:                                     OUT:
          ----                                     ----
             STORAGE     =   418786912.0000               STORAGE     =           7.4733
       CONSTANT HEAD     =           0.0000         CONSTANT HEAD     =           0.0000
     HEAD DEP BOUNDS     =    19768388.0000       HEAD DEP BOUNDS     =           0.2879
      STREAM LEAKAGE     =   684765376.0000        STREAM LEAKAGE     =           9.3323
        UZF RECHARGE     =           0.0000          UZF RECHARGE     =           0.0000
               GW ET     =           0.0000                 GW ET     =           0.0000
     SURFACE LEAKAGE     =           0.0000       SURFACE LEAKAGE     =           0.0000
           AG WELLS      =   807776960.0000             AG WELLS      =           0.0000

               TOTAL OUT =  1931097600.0000                 TOTAL OUT =          17.0935

                IN - OUT =       -2048.0000                  IN - OUT =      -8.2779E-04

     PERCENT DISCREPANCY =          -0.00         PERCENT DISCREPANCY =          -0.00






         TIME SUMMARY AT END OF TIME STEP   30 IN STRESS PERIOD   27
                    SECONDS     MINUTES      HOURS       DAYS        YEARS
                    -----------------------------------------------------------
   TIME STEP LENGTH  87667.      1461.1      24.352      1.0147     2.77799E-03
 STRESS PERIOD TIME 2.63000E+06  43833.      730.56      30.440     8.33397E-02
         TOTAL TIME 6.84668E+07 1.14111E+06  19019.      792.44      2.1696    
1
1
                            STRESS PERIOD NO.   28, LENGTH =   2630000.    
                            -----------------------------------------------

                              NUMBER OF TIME STEPS =    30

                               MULTIPLIER FOR DELT =     1.000

                            INITIAL TIME STEP SIZE =   87666.66    

 REUSING NON-PARAMETER GHB CELLS FROM LAST STRESS PERIOD

      2 GHB CELLS

 REUSING STREAM SEGMENT DATA FROM LAST STRESS PERIOD



            AREAL INFILTRATION RATE
 READING ON UNIT   19 WITH FORMAT: (FREE)              

            1           2           3           4           5           6           7           8           9          10
 ........................................................................................................................
   1   1.0000E-10  2.0000E-10   0.000       0.000       0.000       0.000       0.000       0.000       0.000       0.000    
   2   2.0000E-10  1.0000E-10  2.0000E-10   0.000       0.000      8.0000E-10  8.0000E-10  5.0000E-10   0.000       0.000    
   3    0.000      5.0000E-10  1.0000E-10  1.0000E-10  8.0000E-10  8.0000E-10  5.0000E-10  5.0000E-10   0.000       0.000    
   4   8.0000E-10  5.0000E-10  1.0000E-10  1.0000E-10  1.0000E-10  1.0000E-10  1.0000E-10  1.0000E-10  2.0000E-10   0.000    
   5   8.0000E-10  5.0000E-10  1.0000E-10  1.0000E-10  1.0000E-10  1.0000E-10  1.0000E-10  1.0000E-10  1.0000E-10  1.0000E-10
   6   8.0000E-10  5.0000E-10  5.0000E-10  2.0000E-10  2.0000E-10  1.0000E-10  1.0000E-10  1.0000E-10  1.0000E-10  5.0000E-10
   7   8.0000E-10  5.0000E-10  5.0000E-10  2.0000E-10  2.0000E-10  1.0000E-10  1.0000E-10  2.0000E-10  2.0000E-10   0.000    
   8    0.000      5.0000E-10  5.0000E-10  2.0000E-10  2.0000E-10  1.0000E-10  1.0000E-10  2.0000E-10  5.0000E-10   0.000    
   9    0.000      5.0000E-10  5.0000E-10  2.0000E-10  2.0000E-10  1.0000E-10  1.0000E-10  2.0000E-10  5.0000E-10   0.000    
  10    0.000      5.0000E-10  5.0000E-10  2.0000E-10  2.0000E-10  1.0000E-10  1.0000E-10  2.0000E-10  5.0000E-10  8.0000E-10
  11    0.000      1.0000E-10  1.0000E-10  1.0000E-10  1.0000E-10  1.0000E-10  1.0000E-10  2.0000E-10  5.0000E-10   0.000    
  12   1.0000E-10  1.0000E-10  1.0000E-10  1.0000E-10  1.0000E-10  1.0000E-10  1.0000E-10  1.0000E-10  2.0000E-10   0.000    
  13   1.0000E-10  1.0000E-10  2.0000E-10  2.0000E-10  2.0000E-10  2.0000E-10  2.0000E-10  1.0000E-10  1.0000E-10   0.000    
  14    0.000      2.0000E-10  5.0000E-10  5.0000E-10  5.0000E-10  5.0000E-10  5.0000E-10  2.0000E-10  1.0000E-10   0.000    
  15    0.000       0.000      8.0000E-10  8.0000E-10  8.0000E-10  8.0000E-10   0.000       0.000       0.000       0.000    

                  ET RATE =  5.000000E-10

 USING ET EXTINCTION DEPTH FROM PREVIOUS STRESS PERIOD. CURRENT PERIOD IS:      28

 USING EXTINCTION WATER CONTENT FROM PREVIOUS STRESS PERIOD. CURRENT PERIOD IS:      28

 USING AIR ENTRY PRESSURE FROM PREVIOUS STRESS PERIOD. CURRENT PERIOD IS:      28

 USING ROOT PRESSURE HEAD FROM PREVIOUS STRESS PERIOD. CURRENT PERIOD IS:      28

 USING ROOT ACTIVITY FROM PREVIOUS STRESS PERIOD. CURRENT PERIOD IS:      28

 PROCESSING AG STRESS PERIOD DATA

 READING AG STRESS PERIOD DATA

 READING IRRIGATION SEGMENT

 READING IRRIGATION WELL

 READING SUPPLEMENTAL WELL

 NO IRRPOND OR REUSING IRRPOND DATA FROM LAST STRESS PERIOD

 END PROCESSING AG STRESS PERIOD DATA OPTIONS
 
 SOLVING FOR HEAD 
                                                   Max.-Head-Change                         Max.-Flux-Residual
  Residual-Control   Outer-Iter.   Inner-Iter.     Column Row Layer    Maximum-Head-Change  Column Row Layer    Maximum-Flux-Residual          L2-NORM 
          0                 1           2             4    7     1       0.1359146583E-01       4    7    1         0.7119507462E+00      0.1893011849E+01
          0                 2           2             4    7     1      -0.1322082477E-02       4    7    1        -0.7119530777E-01      0.1891413540E+00
          0                 3           1             4    7     1       0.9002888413E-04       4    7    1         0.4983671493E-02      0.1322542623E-01

    ------------------------------------------------
       NWT REQUIRED            3 OUTER ITERATIONS 
       AND A TOTAL OF          5 INNER ITERATIONS.
    ------------------------------------------------

 NO OUTPUT CONTROL FOR STRESS PERIOD   28   TIME STEP    1
 
 SOLVING FOR HEAD 
                                                   Max.-Head-Change                         Max.-Flux-Residual
  Residual-Control   Outer-Iter.   Inner-Iter.     Column Row Layer    Maximum-Head-Change  Column Row Layer    Maximum-Flux-Residual          L2-NORM 
          0                 1           2             4    7     1       0.1348213155E-01       4    7    1         0.7061884966E+00      0.1926160342E+01
          0                 2           2             4    7     1      -0.1311447162E-02       4    7    1        -0.7061907805E-01      0.1922479897E+00
          0                 3           1             4    7     1       0.8930465907E-04       4    7    1         0.4943335442E-02      0.1342389631E-01

    ------------------------------------------------
       NWT REQUIRED            3 OUTER ITERATIONS 
       AND A TOTAL OF          5 INNER ITERATIONS.
    ------------------------------------------------

 NO OUTPUT CONTROL FOR STRESS PERIOD   28   TIME STEP    2
 
 SOLVING FOR HEAD 
                                                   Max.-Head-Change                         Max.-Flux-Residual
  Residual-Control   Outer-Iter.   Inner-Iter.     Column Row Layer    Maximum-Head-Change  Column Row Layer    Maximum-Flux-Residual          L2-NORM 
          0                 1           2             4    7     1       0.1337428480E-01       4    7    1         0.7005050557E+00      0.1905054540E+01
          0                 2           2             4    7     1      -0.1300956544E-02       4    7    1        -0.7005072930E-01      0.1901904519E+00
          0                 3           1             4    7     1       0.8859028778E-04       4    7    1         0.4903551057E-02      0.1328449862E-01

    ------------------------------------------------
       NWT REQUIRED            3 OUTER ITERATIONS 
       AND A TOTAL OF          5 INNER ITERATIONS.
    ------------------------------------------------

 NO OUTPUT CONTROL FOR STRESS PERIOD   28   TIME STEP    3
 
 SOLVING FOR HEAD 
                                                   Max.-Head-Change                         Max.-Flux-Residual
  Residual-Control   Outer-Iter.   Inner-Iter.     Column Row Layer    Maximum-Head-Change  Column Row Layer    Maximum-Flux-Residual          L2-NORM 
          0                 1           2             4    7     1       0.1326788626E-01       4    7    1         0.6948987401E+00      0.1885543128E+01
          0                 2           2             4    7     1      -0.1290606801E-02       4    7    1        -0.6949009321E-01      0.1882844780E+00
          0                 3           1             4    7     1       0.8788550945E-04       4    7    1         0.4864306551E-02      0.1315505377E-01

    ------------------------------------------------
       NWT REQUIRED            3 OUTER ITERATIONS 
       AND A TOTAL OF          5 INNER ITERATIONS.
    ------------------------------------------------

 NO OUTPUT CONTROL FOR STRESS PERIOD   28   TIME STEP    4
 
 SOLVING FOR HEAD 
                                                   Max.-Head-Change                         Max.-Flux-Residual
  Residual-Control   Outer-Iter.   Inner-Iter.     Column Row Layer    Maximum-Head-Change  Column Row Layer    Maximum-Flux-Residual          L2-NORM 
          0                 1           2             4    7     1       0.1316303921E-01       4    7    1         0.6893748165E+00      0.1867405338E+01
          0                 2           2             4    7     1      -0.1280407977E-02       4    7    1        -0.6893769648E-01      0.1865098714E+00
          0                 3           1             4    7     1       0.8719100783E-04       4    7    1         0.4825638811E-02      0.1303463777E-01

    ------------------------------------------------
       NWT REQUIRED            3 OUTER ITERATIONS 
       AND A TOTAL OF          5 INNER ITERATIONS.
    ------------------------------------------------

 NO OUTPUT CONTROL FOR STRESS PERIOD   28   TIME STEP    5
 
 SOLVING FOR HEAD 
                                                   Max.-Head-Change                         Max.-Flux-Residual
  Residual-Control   Outer-Iter.   Inner-Iter.     Column Row Layer    Maximum-Head-Change  Column Row Layer    Maximum-Flux-Residual          L2-NORM 
          0                 1           2             4    7     1       0.1305956629E-01       4    7    1         0.6839240298E+00      0.1850448666E+01
          0                 2           2             4    7     1      -0.1270342820E-02       4    7    1        -0.6839261352E-01      0.1848474992E+00
          0                 3           1             4    7     1       0.8650560866E-04       4    7    1         0.4787483026E-02      0.1292133600E-01

    ------------------------------------------------
       NWT REQUIRED            3 OUTER ITERATIONS 
       AND A TOTAL OF          5 INNER ITERATIONS.
    ------------------------------------------------

 NO OUTPUT CONTROL FOR STRESS PERIOD   28   TIME STEP    6
 
 SOLVING FOR HEAD 
                                                   Max.-Head-Change                         Max.-Flux-Residual
  Residual-Control   Outer-Iter.   Inner-Iter.     Column Row Layer    Maximum-Head-Change  Column Row Layer    Maximum-Flux-Residual          L2-NORM 
          0                 1           2             4    7     1       0.1295744089E-01       4    7    1         0.6785444893E+00      0.1834518033E+01
          0                 2           2             4    7     1      -0.1260408741E-02       4    7    1        -0.6785465529E-01      0.1832825992E+00
          0                 3           1             4    7     1       0.8582913515E-04       4    7    1         0.4749825968E-02      0.1281428493E-01

    ------------------------------------------------
       NWT REQUIRED            3 OUTER ITERATIONS 
       AND A TOTAL OF          5 INNER ITERATIONS.
    ------------------------------------------------

 NO OUTPUT CONTROL FOR STRESS PERIOD   28   TIME STEP    7
 
 SOLVING FOR HEAD 
                                                   Max.-Head-Change                         Max.-Flux-Residual
  Residual-Control   Outer-Iter.   Inner-Iter.     Column Row Layer    Maximum-Head-Change  Column Row Layer    Maximum-Flux-Residual          L2-NORM 
          0                 1           2             4    7     1       0.1285676478E-01       4    7    1         0.6732421207E+00      0.1819469898E+01
          0                 2           2             4    7     1      -0.1250615640E-02       4    7    1        -0.6732441438E-01      0.1818023695E+00
          0                 3           1             4    7     1       0.8516226182E-04       4    7    1         0.4712709120E-02      0.1271299383E-01

    ------------------------------------------------
       NWT REQUIRED            3 OUTER ITERATIONS 
       AND A TOTAL OF          5 INNER ITERATIONS.
    ------------------------------------------------

 NO OUTPUT CONTROL FOR STRESS PERIOD   28   TIME STEP    8
 
 SOLVING FOR HEAD 
                                                   Max.-Head-Change                         Max.-Flux-Residual
  Residual-Control   Outer-Iter.   Inner-Iter.     Column Row Layer    Maximum-Head-Change  Column Row Layer    Maximum-Flux-Residual          L2-NORM 
          0                 1           2             4    7     1       0.1275750057E-01       4    7    1         0.6680148952E+00      0.1805189009E+01
          0                 2           2             4    7     1      -0.1240959881E-02       4    7    1        -0.6680168789E-01      0.1803952233E+00
          0                 3           1             4    7     1       0.8450474111E-04       4    7    1         0.4676118295E-02      0.1261631893E-01

    ------------------------------------------------
       NWT REQUIRED            3 OUTER ITERATIONS 
       AND A TOTAL OF          5 INNER ITERATIONS.
    ------------------------------------------------

 NO OUTPUT CONTROL FOR STRESS PERIOD   28   TIME STEP    9
 
 SOLVING FOR HEAD 
                                                   Max.-Head-Change                         Max.-Flux-Residual
  Residual-Control   Outer-Iter.   Inner-Iter.     Column Row Layer    Maximum-Head-Change  Column Row Layer    Maximum-Flux-Residual          L2-NORM 
          0                 1           2             4    7     1       0.1265948607E-01       4    7    1         0.6628535685E+00      0.1791581350E+01
          0                 2           2             4    7     1      -0.1231425686E-02       4    7    1        -0.6628555139E-01      0.1790520874E+00
          0                 3           1             4    7     1       0.8385549816E-04       4    7    1         0.4639988751E-02      0.1252413106E-01

    ------------------------------------------------
       NWT REQUIRED            3 OUTER ITERATIONS 
       AND A TOTAL OF          5 INNER ITERATIONS.
    ------------------------------------------------

 NO OUTPUT CONTROL FOR STRESS PERIOD   28   TIME STEP   10
 
 SOLVING FOR HEAD 
                                                   Max.-Head-Change                         Max.-Flux-Residual
  Residual-Control   Outer-Iter.   Inner-Iter.     Column Row Layer    Maximum-Head-Change  Column Row Layer    Maximum-Flux-Residual          L2-NORM 
          0                 1           2             4    7     1       0.1256282289E-01       4    7    1         0.6577643427E+00      0.1778557986E+01
          0                 2           2             4    7     1      -0.1222022939E-02       4    7    1        -0.6577662506E-01      0.1777649406E+00
          0                 3           1             4    7     1       0.8321520655E-04       4    7    1         0.4604363932E-02      0.1243527661E-01

    ------------------------------------------------
       NWT REQUIRED            3 OUTER ITERATIONS 
       AND A TOTAL OF          5 INNER ITERATIONS.
    ------------------------------------------------

 NO OUTPUT CONTROL FOR STRESS PERIOD   28   TIME STEP   11
 
 SOLVING FOR HEAD 
                                                   Max.-Head-Change                         Max.-Flux-Residual
  Residual-Control   Outer-Iter.   Inner-Iter.     Column Row Layer    Maximum-Head-Change  Column Row Layer    Maximum-Flux-Residual          L2-NORM 
          0                 1           2             4    7     1       0.1246734868E-01       4    7    1         0.6527378749E+00      0.1766046109E+01
          0                 2           2             4    7     1      -0.1212735847E-02       4    7    1        -0.6527397460E-01      0.1765268425E+00
          0                 3           1             4    7     1       0.8258279072E-04       4    7    1         0.4569178436E-02      0.1234975160E-01

    ------------------------------------------------
       NWT REQUIRED            3 OUTER ITERATIONS 
       AND A TOTAL OF          5 INNER ITERATIONS.
    ------------------------------------------------

 NO OUTPUT CONTROL FOR STRESS PERIOD   28   TIME STEP   12
 
 SOLVING FOR HEAD 
                                                   Max.-Head-Change                         Max.-Flux-Residual
  Residual-Control   Outer-Iter.   Inner-Iter.     Column Row Layer    Maximum-Head-Change  Column Row Layer    Maximum-Flux-Residual          L2-NORM 
          0                 1           2             4    7     1       0.1237303798E-01       4    7    1         0.6477730524E+00      0.1753987407E+01
          0                 2           2             4    7     1      -0.1203561935E-02       4    7    1        -0.6477748879E-01      0.1753321706E+00
          0                 3           1             4    7     1       0.8195808156E-04       4    7    1         0.4534424431E-02      0.1226710686E-01

    ------------------------------------------------
       NWT REQUIRED            3 OUTER ITERATIONS 
       AND A TOTAL OF          5 INNER ITERATIONS.
    ------------------------------------------------

 NO OUTPUT CONTROL FOR STRESS PERIOD   28   TIME STEP   13
 
 SOLVING FOR HEAD 
                                                   Max.-Head-Change                         Max.-Flux-Residual
  Residual-Control   Outer-Iter.   Inner-Iter.     Column Row Layer    Maximum-Head-Change  Column Row Layer    Maximum-Flux-Residual          L2-NORM 
          0                 1           2             4    7     1       0.1228013504E-01       4    7    1         0.6428831693E+00      0.1742337576E+01
          0                 2           2             4    7     1      -0.1194524961E-02       4    7    1        -0.6428849702E-01      0.1741765251E+00
          0                 3           1             4    7     1       0.8134269768E-04       4    7    1         0.4500195026E-02      0.1218703402E-01

    ------------------------------------------------
       NWT REQUIRED            3 OUTER ITERATIONS 
       AND A TOTAL OF          5 INNER ITERATIONS.
    ------------------------------------------------

 NO OUTPUT CONTROL FOR STRESS PERIOD   28   TIME STEP   14
 
 SOLVING FOR HEAD 
                                                   Max.-Head-Change                         Max.-Flux-Residual
  Residual-Control   Outer-Iter.   Inner-Iter.     Column Row Layer    Maximum-Head-Change  Column Row Layer    Maximum-Flux-Residual          L2-NORM 
          0                 1           2             4    7     1       0.1218833599E-01       4    7    1         0.6380516626E+00      0.1731049926E+01
          0                 2           2             4    7     1      -0.1185595367E-02       4    7    1        -0.6380534297E-01      0.1730560180E+00
          0                 3           1             4    7     1       0.8073462618E-04       4    7    1         0.4466374273E-02      0.1210938220E-01

    ------------------------------------------------
       NWT REQUIRED            3 OUTER ITERATIONS 
       AND A TOTAL OF          5 INNER ITERATIONS.
    ------------------------------------------------

 NO OUTPUT CONTROL FOR STRESS PERIOD   28   TIME STEP   15
 
 SOLVING FOR HEAD 
                                                   Max.-Head-Change                         Max.-Flux-Residual
  Residual-Control   Outer-Iter.   Inner-Iter.     Column Row Layer    Maximum-Head-Change  Column Row Layer    Maximum-Flux-Residual          L2-NORM 
          0                 1           2             4    7     1       0.1209761953E-01       4    7    1         0.6332773904E+00      0.1720075638E+01
          0                 2           2             4    7     1      -0.1176771079E-02       4    7    1        -0.6332791245E-01      0.1719657007E+00
          0                 3           1             4    7     1       0.8013372517E-04       4    7    1         0.4432954135E-02      0.1203365375E-01

    ------------------------------------------------
       NWT REQUIRED            3 OUTER ITERATIONS 
       AND A TOTAL OF          5 INNER ITERATIONS.
    ------------------------------------------------

 NO OUTPUT CONTROL FOR STRESS PERIOD   28   TIME STEP   16
 
 SOLVING FOR HEAD 
                                                   Max.-Head-Change                         Max.-Flux-Residual
  Residual-Control   Outer-Iter.   Inner-Iter.     Column Row Layer    Maximum-Head-Change  Column Row Layer    Maximum-Flux-Residual          L2-NORM 
          0                 1           2             4    7     1       0.1200823321E-01       4    7    1         0.6285738628E+00      0.1709398795E+01
          0                 2           2             4    7     1      -0.1168076179E-02       4    7    1        -0.6285755647E-01      0.1709039825E+00
          0                 3           1             4    7     1       0.7954163515E-04       4    7    1         0.4400029233E-02      0.1195999614E-01

    ------------------------------------------------
       NWT REQUIRED            3 OUTER ITERATIONS 
       AND A TOTAL OF          5 INNER ITERATIONS.
    ------------------------------------------------

 NO OUTPUT CONTROL FOR STRESS PERIOD   28   TIME STEP   17
 
 SOLVING FOR HEAD 
                                                   Max.-Head-Change                         Max.-Flux-Residual
  Residual-Control   Outer-Iter.   Inner-Iter.     Column Row Layer    Maximum-Head-Change  Column Row Layer    Maximum-Flux-Residual          L2-NORM 
          0                 1           2             4    7     1       0.1191974060E-01       4    7    1         0.6239173787E+00      0.1698978044E+01
          0                 2           2             4    7     1      -0.1159468215E-02       4    7    1        -0.6239190492E-01      0.1698670075E+00
          0                 3           1             4    7     1       0.7895546527E-04       4    7    1         0.4367433649E-02      0.1188782278E-01

    ------------------------------------------------
       NWT REQUIRED            3 OUTER ITERATIONS 
       AND A TOTAL OF          5 INNER ITERATIONS.
    ------------------------------------------------

 NO OUTPUT CONTROL FOR STRESS PERIOD   28   TIME STEP   18
 
 SOLVING FOR HEAD 
                                                   Max.-Head-Change                         Max.-Flux-Residual
  Residual-Control   Outer-Iter.   Inner-Iter.     Column Row Layer    Maximum-Head-Change  Column Row Layer    Maximum-Flux-Residual          L2-NORM 
          0                 1           2             4    7     1       0.1183253225E-01       4    7    1         0.6193291547E+00      0.1688805505E+01
          0                 2           2             4    7     1      -0.1150985176E-02       4    7    1        -0.6193307945E-01      0.1688541794E+00
          0                 3           1             4    7     1       0.7837780250E-04       4    7    1         0.4335315897E-02      0.1181735356E-01

    ------------------------------------------------
       NWT REQUIRED            3 OUTER ITERATIONS 
       AND A TOTAL OF          5 INNER ITERATIONS.
    ------------------------------------------------

 NO OUTPUT CONTROL FOR STRESS PERIOD   28   TIME STEP   19
 
 SOLVING FOR HEAD 
                                                   Max.-Head-Change                         Max.-Flux-Residual
  Residual-Control   Outer-Iter.   Inner-Iter.     Column Row Layer    Maximum-Head-Change  Column Row Layer    Maximum-Flux-Residual          L2-NORM 
          0                 1           2             4    7     1       0.1174630936E-01       4    7    1         0.6147929021E+00      0.1678842585E+01
          0                 2           2             4    7     1      -0.1142597995E-02       4    7    1        -0.6147945121E-01      0.1678616433E+00
          0                 3           1             4    7     1       0.7780666635E-04       4    7    1         0.4303561909E-02      0.1174822623E-01

    ------------------------------------------------
       NWT REQUIRED            3 OUTER ITERATIONS 
       AND A TOTAL OF          5 INNER ITERATIONS.
    ------------------------------------------------

 NO OUTPUT CONTROL FOR STRESS PERIOD   28   TIME STEP   20
 
 SOLVING FOR HEAD 
                                                   Max.-Head-Change                         Max.-Flux-Residual
  Residual-Control   Outer-Iter.   Inner-Iter.     Column Row Layer    Maximum-Head-Change  Column Row Layer    Maximum-Flux-Residual          L2-NORM 
          0                 1           2             4    7     1       0.1166118679E-01       4    7    1         0.6103150512E+00      0.1669086777E+01
          0                 2           2             4    7     1      -0.1134317847E-02       4    7    1        -0.6103166320E-01      0.1668893600E+00
          0                 3           1             4    7     1       0.7724281985E-04       4    7    1         0.4272216781E-02      0.1168070822E-01

    ------------------------------------------------
       NWT REQUIRED            3 OUTER ITERATIONS 
       AND A TOTAL OF          5 INNER ITERATIONS.
    ------------------------------------------------

 NO OUTPUT CONTROL FOR STRESS PERIOD   28   TIME STEP   21
 
 SOLVING FOR HEAD 
                                                   Max.-Head-Change                         Max.-Flux-Residual
  Residual-Control   Outer-Iter.   Inner-Iter.     Column Row Layer    Maximum-Head-Change  Column Row Layer    Maximum-Flux-Residual          L2-NORM 
          0                 1           2             4    7     1       0.1157714049E-01       4    7    1         0.6058942507E+00      0.1659515672E+01
          0                 2           2             4    7     1      -0.1126142391E-02       4    7    1        -0.6058958030E-01      0.1659349491E+00
          0                 3           1             4    7     1       0.7668610171E-04       4    7    1         0.4241270974E-02      0.1161387786E-01

    ------------------------------------------------
       NWT REQUIRED            3 OUTER ITERATIONS 
       AND A TOTAL OF          5 INNER ITERATIONS.
    ------------------------------------------------

 NO OUTPUT CONTROL FOR STRESS PERIOD   28   TIME STEP   22
 
 SOLVING FOR HEAD 
                                                   Max.-Head-Change                         Max.-Flux-Residual
  Residual-Control   Outer-Iter.   Inner-Iter.     Column Row Layer    Maximum-Head-Change  Column Row Layer    Maximum-Flux-Residual          L2-NORM 
          0                 1           2             4    7     1       0.1149414731E-01       4    7    1         0.6015292523E+00      0.1650120565E+01
          0                 2           2             4    7     1      -0.1118069377E-02       4    7    1        -0.6015307767E-01      0.1649978270E+00
          0                 3           1             4    7     1       0.7613636000E-04       4    7    1         0.4210715822E-02      0.1154850640E-01

    ------------------------------------------------
       NWT REQUIRED            3 OUTER ITERATIONS 
       AND A TOTAL OF          5 INNER ITERATIONS.
    ------------------------------------------------

 NO OUTPUT CONTROL FOR STRESS PERIOD   28   TIME STEP   23
 
 SOLVING FOR HEAD 
                                                   Max.-Head-Change                         Max.-Flux-Residual
  Residual-Control   Outer-Iter.   Inner-Iter.     Column Row Layer    Maximum-Head-Change  Column Row Layer    Maximum-Flux-Residual          L2-NORM 
          0                 1           2             4    7     1       0.1141204924E-01       4    7    1         0.5972115484E+00      0.1640880255E+01
          0                 2           2             4    7     1      -0.1110083432E-02       4    7    1        -0.5972130458E-01      0.1640758861E+00
          0                 3           1             4    7     1       0.7559254706E-04       4    7    1         0.4180491713E-02      0.1148422792E-01

    ------------------------------------------------
       NWT REQUIRED            3 OUTER ITERATIONS 
       AND A TOTAL OF          5 INNER ITERATIONS.
    ------------------------------------------------

 NO OUTPUT CONTROL FOR STRESS PERIOD   28   TIME STEP   24
 
 SOLVING FOR HEAD 
                                                   Max.-Head-Change                         Max.-Flux-Residual
  Residual-Control   Outer-Iter.   Inner-Iter.     Column Row Layer    Maximum-Head-Change  Column Row Layer    Maximum-Flux-Residual          L2-NORM 
          0                 1           2             4    7     1       0.1133096940E-01       4    7    1         0.5929475624E+00      0.1631798381E+01
          0                 2           2             4    7     1      -0.1102196536E-02       4    7    1        -0.5929490333E-01      0.1631694628E+00
          0                 3           1             4    7     1       0.7505547908E-04       4    7    1         0.4150643629E-02      0.1142094612E-01

    ------------------------------------------------
       NWT REQUIRED            3 OUTER ITERATIONS 
       AND A TOTAL OF          5 INNER ITERATIONS.
    ------------------------------------------------

 NO OUTPUT CONTROL FOR STRESS PERIOD   28   TIME STEP   25
 
 SOLVING FOR HEAD 
                                                   Max.-Head-Change                         Max.-Flux-Residual
  Residual-Control   Outer-Iter.   Inner-Iter.     Column Row Layer    Maximum-Head-Change  Column Row Layer    Maximum-Flux-Residual          L2-NORM 
          0                 1           2             4    7     1       0.1125088397E-01       4    7    1         0.5887363705E+00      0.1622858211E+01
          0                 2           2             4    7     1      -0.1094406369E-02       4    7    1        -0.5887378154E-01      0.1622769847E+00
          0                 3           1             4    7     1       0.7452499831E-04       4    7    1         0.4121165137E-02      0.1135857378E-01

    ------------------------------------------------
       NWT REQUIRED            3 OUTER ITERATIONS 
       AND A TOTAL OF          5 INNER ITERATIONS.
    ------------------------------------------------

 NO OUTPUT CONTROL FOR STRESS PERIOD   28   TIME STEP   26
 
 SOLVING FOR HEAD 
                                                   Max.-Head-Change                         Max.-Flux-Residual
  Residual-Control   Outer-Iter.   Inner-Iter.     Column Row Layer    Maximum-Head-Change  Column Row Layer    Maximum-Flux-Residual          L2-NORM 
          0                 1           2             4    7     1       0.1117164041E-01       4    7    1         0.5845694275E+00      0.1614049853E+01
          0                 2           2             4    7     1      -0.1086698093E-02       4    7    1        -0.5845708470E-01      0.1613973476E+00
          0                 3           1             4    7     1       0.7400009320E-04       4    7    1         0.4091996361E-02      0.1129708477E-01

    ------------------------------------------------
       NWT REQUIRED            3 OUTER ITERATIONS 
       AND A TOTAL OF          5 INNER ITERATIONS.
    ------------------------------------------------

 NO OUTPUT CONTROL FOR STRESS PERIOD   28   TIME STEP   27
 
 SOLVING FOR HEAD 
                                                   Max.-Head-Change                         Max.-Flux-Residual
  Residual-Control   Outer-Iter.   Inner-Iter.     Column Row Layer    Maximum-Head-Change  Column Row Layer    Maximum-Flux-Residual          L2-NORM 
          0                 1           2             4    7     1       0.1109349070E-01       4    7    1         0.5804607527E+00      0.1605375068E+01
          0                 2           2             4    7     1      -0.1079096221E-02       4    7    1        -0.5804621476E-01      0.1605310210E+00
          0                 3           1             4    7     1       0.7348243420E-04       4    7    1         0.4063235475E-02      0.1123655178E-01

    ------------------------------------------------
       NWT REQUIRED            3 OUTER ITERATIONS 
       AND A TOTAL OF          5 INNER ITERATIONS.
    ------------------------------------------------

 NO OUTPUT CONTROL FOR STRESS PERIOD   28   TIME STEP   28
 
 SOLVING FOR HEAD 
                                                   Max.-Head-Change                         Max.-Flux-Residual
  Residual-Control   Outer-Iter.   Inner-Iter.     Column Row Layer    Maximum-Head-Change  Column Row Layer    Maximum-Flux-Residual          L2-NORM 
          0                 1           2             4    7     1       0.1101614272E-01       4    7    1         0.5763941736E+00      0.1596822293E+01
          0                 2           2             4    7     1      -0.1071572335E-02       4    7    1        -0.5763955442E-01      0.1596766591E+00
          0                 3           1             4    7     1       0.7297008580E-04       4    7    1         0.4034769248E-02      0.1117682600E-01

    ------------------------------------------------
       NWT REQUIRED            3 OUTER ITERATIONS 
       AND A TOTAL OF          5 INNER ITERATIONS.
    ------------------------------------------------

 NO OUTPUT CONTROL FOR STRESS PERIOD   28   TIME STEP   29
 
 SOLVING FOR HEAD 
                                                   Max.-Head-Change                         Max.-Flux-Residual
  Residual-Control   Outer-Iter.   Inner-Iter.     Column Row Layer    Maximum-Head-Change  Column Row Layer    Maximum-Flux-Residual          L2-NORM 
          0                 1           2             4    7     1       0.1093971567E-01       4    7    1         0.5723764721E+00      0.1588382559E+01
          0                 2           2             4    7     1      -0.1064138032E-02       4    7    1        -0.5723778191E-01      0.1588334734E+00
          0                 3           1             4    7     1       0.7246383800E-04       4    7    1         0.4006645199E-02      0.1111784311E-01

    ------------------------------------------------
       NWT REQUIRED            3 OUTER ITERATIONS 
       AND A TOTAL OF          5 INNER ITERATIONS.
    ------------------------------------------------

 NO OUTPUT CONTROL FOR STRESS PERIOD   28   TIME STEP   30



 STREAM LISTING     PERIOD     28   STEP       30

 LAYER ROW COL. STREAM  RCH.  FLOW INTO     FLOW TO   FLOW OUT OF   OVRLND.     DIRECT     STREAM       STREAM     STREAM     STREAM   STREAMBED  STREAMBED
                SEG.NO.  NO.  STRM. RCH.    AQUIFER    STRM. RCH.    RUNOFF     PRECIP       ET          HEAD       DEPTH      WIDTH   CONDCTNC.   GRADIENT

   1    1    1     1     1    2.8874E+01  2.6239E-01   2.8612E+01  0.000E+00  0.000E+00  0.000E+00  1.09428E+03  1.233E+00  1.377E+01  6.198E-02  1.411E+00
   1    2    2     1     2    2.8612E+01  4.0592E-01   2.8206E+01  0.000E+00  0.000E+00  0.000E+00  1.08929E+03  1.229E+00  1.371E+01  9.599E-02  1.410E+00
   1    3    3     1     3    2.8206E+01  3.4575E-01   2.7860E+01  0.000E+00  0.000E+00  0.000E+00  1.08364E+03  1.224E+00  1.364E+01  8.186E-02  1.408E+00
   1    3    4     1     4    2.7860E+01  3.1803E-01   2.7542E+01  0.000E+00  0.000E+00  0.000E+00  1.07863E+03  1.219E+00  1.358E+01  7.538E-02  1.406E+00
   1    4    5     2     1    2.5542E+01  3.2904E-01   2.5213E+01  0.000E+00  0.000E+00  0.000E+00  1.07315E+03  1.218E+00  1.200E+01  7.800E-02  1.406E+00
   1    5    6     2     2    2.5213E+01  2.5260E-01   2.4960E+01  0.000E+00  0.000E+00  0.000E+00  1.06772E+03  1.210E+00  1.200E+01  6.000E-02  1.403E+00
   1    6    6     2     3    2.4960E+01  2.5217E-01   2.4708E+01  0.000E+00  0.000E+00  0.000E+00  1.06300E+03  1.203E+00  1.200E+01  6.000E-02  1.401E+00
   1    7    6     2     4    2.4708E+01  2.5172E-01   2.4457E+01  0.000E+00  0.000E+00  0.000E+00  1.05827E+03  1.195E+00  1.200E+01  6.000E-02  1.398E+00
   1    8    6     2     5    2.4457E+01  2.5128E-01   2.4205E+01  0.000E+00  0.000E+00  0.000E+00  1.05355E+03  1.188E+00  1.200E+01  6.000E-02  1.396E+00
   1    3    5     3     1    2.0000E+00  2.8252E-01   1.7175E+00  0.000E+00  0.000E+00  0.000E+00  1.07555E+03  1.909E+00  9.636E+00  7.227E-02  1.955E+00
   1    3    6     3     2    1.7175E+00  2.4905E-01   1.4684E+00  0.000E+00  0.000E+00  0.000E+00  1.07264E+03  1.727E+00  8.909E+00  6.682E-02  1.864E+00
   1    3    7     3     3    1.4684E+00  1.9718E-01   1.2712E+00  0.000E+00  0.000E+00  0.000E+00  1.06987E+03  1.555E+00  8.218E+00  5.547E-02  1.777E+00
   1    4    8     3     4    1.2712E+00  2.2567E-01   1.0456E+00  0.000E+00  0.000E+00  0.000E+00  1.06682E+03  1.364E+00  7.455E+00  6.709E-02  1.682E+00
   1    5    8     3     5    1.0456E+00  1.5790E-01   8.8768E-01  0.000E+00  0.000E+00  0.000E+00  1.06362E+03  1.164E+00  6.655E+00  4.991E-02  1.582E+00
   1    6    8     3     6    8.8768E-01  5.5980E-02   8.3170E-01  0.000E+00  0.000E+00  0.000E+00  1.06158E+03  1.036E+00  6.145E+00  1.844E-02  1.518E+00
   1    5   10     4     1    1.0000E+01  9.0919E-02   9.9091E+00  0.000E+00  0.000E+00  0.000E+00  1.07836E+03  6.368E-01  1.000E+01  2.500E-02  1.212E+00
   1    5    9     4     2    9.9091E+00  1.8158E-01   9.7275E+00  0.000E+00  0.000E+00  0.000E+00  1.07154E+03  6.315E-01  1.000E+01  5.000E-02  1.211E+00
   1    6    8     4     3    9.7275E+00  1.2689E-01   9.6006E+00  0.000E+00  0.000E+00  0.000E+00  1.06381E+03  6.256E-01  1.000E+01  3.500E-02  1.209E+00
   1    6    8     5     1    1.0432E+01  2.2686E-01   1.0205E+01  0.000E+00  0.000E+00  0.000E+00  1.05868E+03  6.790E-01  1.542E+01  6.166E-02  1.226E+00
   1    7    7     5     2    1.0205E+01  2.7894E-01   9.9265E+00  0.000E+00  0.000E+00  0.000E+00  1.05417E+03  6.732E-01  1.519E+01  7.594E-02  1.224E+00
   1    8    7     5     3    9.9265E+00  1.9221E-01   9.7343E+00  0.000E+00  0.000E+00  0.000E+00  1.04992E+03  6.676E-01  1.497E+01  5.241E-02  1.223E+00
   1    8    6     5     4    9.7343E+00  1.3577E-01   9.5985E+00  0.000E+00  0.000E+00  0.000E+00  1.04691E+03  6.637E-01  1.482E+01  3.706E-02  1.221E+00
   1    9    6     6     1    3.3804E+01  2.6759E-01   3.3536E+01  0.000E+00  0.000E+00  0.000E+00  1.04419E+03  1.460E+00  1.200E+01  6.000E-02  1.487E+00
   1   10    7     6     2    3.3536E+01  2.6717E-01   3.3269E+01  0.000E+00  0.000E+00  0.000E+00  1.03963E+03  1.453E+00  1.200E+01  6.000E-02  1.484E+00
   1   11    7     6     3    3.3269E+01  2.6676E-01   3.3002E+01  0.000E+00  0.000E+00  0.000E+00  1.03508E+03  1.446E+00  1.200E+01  6.000E-02  1.482E+00
   1   12    7     6     4    3.3002E+01  2.6634E-01   3.2736E+01  0.000E+00  0.000E+00  0.000E+00  1.03053E+03  1.439E+00  1.200E+01  6.000E-02  1.480E+00
   1   13    7     6     5    3.2736E+01  1.8773E-02   3.2717E+01  0.000E+00  0.000E+00  0.000E+00  1.02734E+03  1.435E+00  1.200E+01  2.400E-02  2.607E-01
   1   14    9     7     1    1.5000E+02  1.3833E+00   1.4862E+02  0.000E+00  0.000E+00  0.000E+00  1.03987E+03  2.288E+00  5.529E+01  5.593E-01  8.245E-01
   1   13    8     7     2    1.4862E+02  1.9938E+00   1.4662E+02  0.000E+00  0.000E+00  0.000E+00  1.03478E+03  2.279E+00  5.525E+01  6.147E-01  1.081E+00
   1   13    7     7     3    1.4662E+02  1.7454E+00   1.4488E+02  0.000E+00  0.000E+00  0.000E+00  1.02969E+03  2.269E+00  5.521E+01  5.584E-01  1.042E+00
   1   13    6     8     1    1.7759E+02  1.2255E+00   1.7637E+02  0.000E+00  0.000E+00  0.000E+00  1.02487E+03  2.997E+00  4.346E+01  4.429E-01  9.224E-01
   1   13    5     8     2    1.7637E+02  4.4414E-01   1.7592E+02  0.000E+00  0.000E+00  0.000E+00  1.01862E+03  2.992E+00  4.338E+01  4.421E-01  3.349E-01
   1   13    4     8     3    1.7592E+02 -1.5660E+00   1.7749E+02  0.000E+00  0.000E+00  0.000E+00  1.01237E+03  2.995E+00  4.343E+01  4.426E+00 -1.179E-01
   1   13    3     8     4    1.7749E+02 -3.2168E+00   1.8071E+02  0.000E+00  0.000E+00  0.000E+00  1.00614E+03  3.010E+00  4.365E+01  4.448E+00 -2.410E-01
   1   13    2     8     5    1.8071E+02 -2.4388E+00   1.8315E+02  0.000E+00  0.000E+00  0.000E+00  9.99903E+02  3.028E+00  4.391E+01  4.475E+00 -1.817E-01
   1   13    1     8     6    1.8315E+02 -1.9121E+00   1.8506E+02  0.000E+00  0.000E+00  0.000E+00  9.94917E+02  3.042E+00  4.411E+01  2.697E+00 -2.364E-01
   1    8    6     9     1    0.0000E+00  0.0000E+00   0.0000E+00  0.000E+00  0.000E+00  0.000E+00  1.07875E+03  0.000E+00  4.000E+00  0.000E+00  1.000E+00
   1    8    5     9     2    0.0000E+00  0.0000E+00   0.0000E+00  0.000E+00  0.000E+00  0.000E+00  1.07825E+03  0.000E+00  4.000E+00  0.000E+00  1.000E+00





UNSATURATED ZONE PACKAGE VOLUMETRIC BUDGET FOR  TIME STEP    30 STRESS PERIOD   28
  ------------------------------------------------------------------------------



     CUMULATIVE VOLUMES      L**3       RATES FOR THIS TIME STEP      L**3/T
     ------------------                 ------------------------

           IN:                                      IN:
           ---                                      ---
        INFILTRATION =   868032912.5689          INFILTRATION =           0.8475

          OUT:                                     OUT:
          ----                                     ----
              UZF ET =   866005320.2400                UZF ET =           0.7500
        UZF RECHARGE =       73224.0000          UZF RECHARGE =       0.0000E+00

            IN - OUT =     1954368.3289              IN - OUT =       9.7500E-02

          STORAGE:                                 STORAGE:
          --------                                 --------
      STORAGE CHANGE =     1954368.3777        STORAGE CHANGE =       9.7500E-02

 PERCENT DISCREPANCY IS DIFFERENCE BETWEEN IN-OUT MINUS CHANGE IN STORAGE
 DIVIDED BY THE AVERAGE OF IN AND OUT TIMES 100

 PERCENT DISCREPANCY =           0.00     PERCENT DISCREPANCY =           0.00






1
  VOLUMETRIC BUDGET FOR AGRICULTURAL FIELDS AT  END OF TIME STEP   30, STRESS PERIOD  28
  ------------------------------------------------------------------------------

     CUMULATIVE VOLUMES      L**3       RATES FOR THIS TIME STEP      L**3/T
     ------------------                 ------------------------

           IN:                                      IN:
           ---                                      ---
               AG WELLS  =   807776960.0000                 AG WELLS  =           0.0000
      DIVERSION SEGMENTS =           0.0000        DIVERSION SEGMENTS =           0.0000
       IRRIGATION PONDS  =           0.0000         IRRIGATION PONDS  =           0.0000
           GW IRRIGATION =           0.0000             GW IRRIGATION =           0.0000
           SW IRRIGATION =           0.0000             SW IRRIGATION =           0.0000
        SYSTEM LOSSES GW =           0.0000          SYSTEM LOSSES GW =           0.0000
        SYSTEM LOSSES SW =           0.0000          SYSTEM LOSSES SW =           0.0000

                TOTAL IN =   807776960.0000                  TOTAL IN =           0.0000

          OUT:                                     OUT:
          ----                                     ----
               AG WELLS  =           0.0000                 AG WELLS  =           0.0000
      DIVERSION SEGMENTS =           0.0000        DIVERSION SEGMENTS =           0.0000
       IRRIGATION PONDS  =           0.0000         IRRIGATION PONDS  =           0.0000
           GW IRRIGATION =   807776960.0000             GW IRRIGATION =           0.0000
           SW IRRIGATION =           0.0000             SW IRRIGATION =           0.0000
        SYSTEM LOSSES GW =           0.0000          SYSTEM LOSSES GW =           0.0000
        SYSTEM LOSSES SW =           0.0000          SYSTEM LOSSES SW =           0.0000

               TOTAL OUT =   807776960.0000                 TOTAL OUT =           0.0000

                IN - OUT =           0.0000                  IN - OUT =           0.0000

     PERCENT DISCREPANCY =           0.00         PERCENT DISCREPANCY =           0.00



1
  VOLUMETRIC BUDGET FOR ENTIRE MODEL AT END OF TIME STEP   30, STRESS PERIOD  28
  ------------------------------------------------------------------------------

     CUMULATIVE VOLUMES      L**3       RATES FOR THIS TIME STEP      L**3/T
     ------------------                 ------------------------

           IN:                                      IN:
           ---                                      ---
             STORAGE     =  1110519168.0000               STORAGE     =           3.3076
       CONSTANT HEAD     =           0.0000         CONSTANT HEAD     =           0.0000
     HEAD DEP BOUNDS     =    20488074.0000       HEAD DEP BOUNDS     =           0.2890
      STREAM LEAKAGE     =   844555712.0000        STREAM LEAKAGE     =          12.9492
        UZF RECHARGE     =       73223.9531          UZF RECHARGE     =           0.0000
               GW ET     =           0.0000                 GW ET     =           0.0000
     SURFACE LEAKAGE     =           0.0000       SURFACE LEAKAGE     =           0.0000
           AG WELLS      =           0.0000             AG WELLS      =           0.0000

                TOTAL IN =  1975636224.0000                  TOTAL IN =          16.5457

          OUT:                                     OUT:
          ----                                     ----
             STORAGE     =   439165376.0000               STORAGE     =           7.1233
       CONSTANT HEAD     =           0.0000         CONSTANT HEAD     =           0.0000
     HEAD DEP BOUNDS     =    20528610.0000       HEAD DEP BOUNDS     =           0.2898
      STREAM LEAKAGE     =   708170432.0000        STREAM LEAKAGE     =           9.1337
        UZF RECHARGE     =           0.0000          UZF RECHARGE     =           0.0000
               GW ET     =           0.0000                 GW ET     =           0.0000
     SURFACE LEAKAGE     =           0.0000       SURFACE LEAKAGE     =           0.0000
           AG WELLS      =   807776960.0000             AG WELLS      =           0.0000

               TOTAL OUT =  1975641344.0000                 TOTAL OUT =          16.5468

                IN - OUT =       -5120.0000                  IN - OUT =      -1.0891E-03

     PERCENT DISCREPANCY =          -0.00         PERCENT DISCREPANCY =          -0.01






         TIME SUMMARY AT END OF TIME STEP   30 IN STRESS PERIOD   28
                    SECONDS     MINUTES      HOURS       DAYS        YEARS
                    -----------------------------------------------------------
   TIME STEP LENGTH  87667.      1461.1      24.352      1.0147     2.77799E-03
 STRESS PERIOD TIME 2.63000E+06  43833.      730.56      30.440     8.33397E-02
         TOTAL TIME 7.10967E+07 1.18494E+06  19749.      822.88      2.2529    
1
1
                            STRESS PERIOD NO.   29, LENGTH =   2630000.    
                            -----------------------------------------------

                              NUMBER OF TIME STEPS =    30

                               MULTIPLIER FOR DELT =     1.000

                            INITIAL TIME STEP SIZE =   87666.66    

 REUSING NON-PARAMETER GHB CELLS FROM LAST STRESS PERIOD

      2 GHB CELLS

 REUSING STREAM SEGMENT DATA FROM LAST STRESS PERIOD



            AREAL INFILTRATION RATE
 READING ON UNIT   19 WITH FORMAT: (FREE)              

            1           2           3           4           5           6           7           8           9          10
 ........................................................................................................................
   1   1.0000E-10  2.0000E-10   0.000       0.000       0.000       0.000       0.000       0.000       0.000       0.000    
   2   2.0000E-10  1.0000E-10  2.0000E-10   0.000       0.000      8.0000E-10  8.0000E-10  5.0000E-10   0.000       0.000    
   3    0.000      5.0000E-10  1.0000E-10  1.0000E-10  8.0000E-10  8.0000E-10  5.0000E-10  5.0000E-10   0.000       0.000    
   4   8.0000E-10  5.0000E-10  1.0000E-10  1.0000E-10  1.0000E-10  1.0000E-10  1.0000E-10  1.0000E-10  2.0000E-10   0.000    
   5   8.0000E-10  5.0000E-10  1.0000E-10  1.0000E-10  1.0000E-10  1.0000E-10  1.0000E-10  1.0000E-10  1.0000E-10  1.0000E-10
   6   8.0000E-10  5.0000E-10  5.0000E-10  2.0000E-10  2.0000E-10  1.0000E-10  1.0000E-10  1.0000E-10  1.0000E-10  5.0000E-10
   7   8.0000E-10  5.0000E-10  5.0000E-10  2.0000E-10  2.0000E-10  1.0000E-10  1.0000E-10  2.0000E-10  2.0000E-10   0.000    
   8    0.000      5.0000E-10  5.0000E-10  2.0000E-10  2.0000E-10  1.0000E-10  1.0000E-10  2.0000E-10  5.0000E-10   0.000    
   9    0.000      5.0000E-10  5.0000E-10  2.0000E-10  2.0000E-10  1.0000E-10  1.0000E-10  2.0000E-10  5.0000E-10   0.000    
  10    0.000      5.0000E-10  5.0000E-10  2.0000E-10  2.0000E-10  1.0000E-10  1.0000E-10  2.0000E-10  5.0000E-10  8.0000E-10
  11    0.000      1.0000E-10  1.0000E-10  1.0000E-10  1.0000E-10  1.0000E-10  1.0000E-10  2.0000E-10  5.0000E-10   0.000    
  12   1.0000E-10  1.0000E-10  1.0000E-10  1.0000E-10  1.0000E-10  1.0000E-10  1.0000E-10  1.0000E-10  2.0000E-10   0.000    
  13   1.0000E-10  1.0000E-10  2.0000E-10  2.0000E-10  2.0000E-10  2.0000E-10  2.0000E-10  1.0000E-10  1.0000E-10   0.000    
  14    0.000      2.0000E-10  5.0000E-10  5.0000E-10  5.0000E-10  5.0000E-10  5.0000E-10  2.0000E-10  1.0000E-10   0.000    
  15    0.000       0.000      8.0000E-10  8.0000E-10  8.0000E-10  8.0000E-10   0.000       0.000       0.000       0.000    

                  ET RATE =  2.500000E-08

 USING ET EXTINCTION DEPTH FROM PREVIOUS STRESS PERIOD. CURRENT PERIOD IS:      29

 USING EXTINCTION WATER CONTENT FROM PREVIOUS STRESS PERIOD. CURRENT PERIOD IS:      29

 USING AIR ENTRY PRESSURE FROM PREVIOUS STRESS PERIOD. CURRENT PERIOD IS:      29

 USING ROOT PRESSURE HEAD FROM PREVIOUS STRESS PERIOD. CURRENT PERIOD IS:      29

 USING ROOT ACTIVITY FROM PREVIOUS STRESS PERIOD. CURRENT PERIOD IS:      29

 PROCESSING AG STRESS PERIOD DATA

 READING AG STRESS PERIOD DATA

 READING IRRIGATION SEGMENT

 READING IRRIGATION WELL

 READING SUPPLEMENTAL WELL

 NO IRRPOND OR REUSING IRRPOND DATA FROM LAST STRESS PERIOD

 END PROCESSING AG STRESS PERIOD DATA OPTIONS
 
 SOLVING FOR HEAD 
                                                   Max.-Head-Change                         Max.-Flux-Residual
  Residual-Control   Outer-Iter.   Inner-Iter.     Column Row Layer    Maximum-Head-Change  Column Row Layer    Maximum-Flux-Residual          L2-NORM 
          0                 1           2             4    7     1       0.1086419494E-01       4    7    1         0.5684065192E+00      0.1580061595E+01
          0                 2           2             4    7     1      -0.1056791890E-02       4    7    1        -0.5684078429E-01      0.1580021629E+00
          0                 3           1             4    7     1       0.7196359307E-04       4    7    1         0.3978855360E-02      0.1105978558E-01

    ------------------------------------------------
       NWT REQUIRED            3 OUTER ITERATIONS 
       AND A TOTAL OF          5 INNER ITERATIONS.
    ------------------------------------------------

 NO OUTPUT CONTROL FOR STRESS PERIOD   29   TIME STEP    1
 
 SOLVING FOR HEAD 
                                                   Max.-Head-Change                         Max.-Flux-Residual
  Residual-Control   Outer-Iter.   Inner-Iter.     Column Row Layer    Maximum-Head-Change  Column Row Layer    Maximum-Flux-Residual          L2-NORM 
          0                 1           2             4    7     1       0.1078943032E-01       4    7    1         0.5644835579E+00      0.1645852430E+01
          0                 2           2             4    7     1      -0.1049519301E-02       4    7    1        -0.5644848604E-01      0.1641248780E+00
          0                 3           1             4    7     1       0.7146835638E-04       4    7    1         0.3951394497E-02      0.1144616819E-01

    ------------------------------------------------
       NWT REQUIRED            3 OUTER ITERATIONS 
       AND A TOTAL OF          5 INNER ITERATIONS.
    ------------------------------------------------

 NO OUTPUT CONTROL FOR STRESS PERIOD   29   TIME STEP    2
 
 SOLVING FOR HEAD 
                                                   Max.-Head-Change                         Max.-Flux-Residual
  Residual-Control   Outer-Iter.   Inner-Iter.     Column Row Layer    Maximum-Head-Change  Column Row Layer    Maximum-Flux-Residual          L2-NORM 
          0                 1           2             4    7     1       0.1071538044E-01       4    7    1         0.5605997970E+00      0.1669059913E+01
          0                 2           2             4    7     1      -0.1042316235E-02       4    7    1        -0.5606010789E-01      0.1663083560E+00
          0                 3           1             4    7     1       0.7097785445E-04       4    7    1         0.3924208031E-02      0.1158693420E-01

    ------------------------------------------------
       NWT REQUIRED            3 OUTER ITERATIONS 
       AND A TOTAL OF          5 INNER ITERATIONS.
    ------------------------------------------------

 NO OUTPUT CONTROL FOR STRESS PERIOD   29   TIME STEP    3
 
 SOLVING FOR HEAD 
                                                   Max.-Head-Change                         Max.-Flux-Residual
  Residual-Control   Outer-Iter.   Inner-Iter.     Column Row Layer    Maximum-Head-Change  Column Row Layer    Maximum-Flux-Residual          L2-NORM 
          0                 1           2             4    7     1       0.1064190573E-01       4    7    1         0.5567457831E+00      0.1644891875E+01
          0                 2           2             4    7     1      -0.1035175862E-02       4    7    1        -0.5567470443E-01      0.1639753169E+00
          0                 3           1             4    7     1       0.7049162200E-04       4    7    1         0.3897229803E-02      0.1143076615E-01

    ------------------------------------------------
       NWT REQUIRED            3 OUTER ITERATIONS 
       AND A TOTAL OF          5 INNER ITERATIONS.
    ------------------------------------------------

 NO OUTPUT CONTROL FOR STRESS PERIOD   29   TIME STEP    4
 
 SOLVING FOR HEAD 
                                                   Max.-Head-Change                         Max.-Flux-Residual
  Residual-Control   Outer-Iter.   Inner-Iter.     Column Row Layer    Maximum-Head-Change  Column Row Layer    Maximum-Flux-Residual          L2-NORM 
          0                 1           2             4    7     1       0.1056924832E-01       4    7    1         0.5529358538E+00      0.1623111359E+01
          0                 2           2             4    7     1      -0.1028101505E-02       4    7    1        -0.5529370954E-01      0.1618585953E+00
          0                 3           1             4    7     1       0.7000988503E-04       4    7    1         0.3870560167E-02      0.1128902065E-01

    ------------------------------------------------
       NWT REQUIRED            3 OUTER ITERATIONS 
       AND A TOTAL OF          5 INNER ITERATIONS.
    ------------------------------------------------

 NO OUTPUT CONTROL FOR STRESS PERIOD   29   TIME STEP    5
 
 SOLVING FOR HEAD 
                                                   Max.-Head-Change                         Max.-Flux-Residual
  Residual-Control   Outer-Iter.   Inner-Iter.     Column Row Layer    Maximum-Head-Change  Column Row Layer    Maximum-Flux-Residual          L2-NORM 
          0                 1           2             4    7     1       0.1049714945E-01       4    7    1         0.5491543953E+00      0.1603375729E+01
          0                 2           2             4    7     1      -0.1021088223E-02       4    7    1        -0.5491556174E-01      0.1599435353E+00
          0                 3           1             4    7     1       0.6953230689E-04       4    7    1         0.3844089827E-02      0.1115989623E-01

    ------------------------------------------------
       NWT REQUIRED            3 OUTER ITERATIONS 
       AND A TOTAL OF          5 INNER ITERATIONS.
    ------------------------------------------------

 NO OUTPUT CONTROL FOR STRESS PERIOD   29   TIME STEP    6
 
 SOLVING FOR HEAD 
                                                   Max.-Head-Change                         Max.-Flux-Residual
  Residual-Control   Outer-Iter.   Inner-Iter.     Column Row Layer    Maximum-Head-Change  Column Row Layer    Maximum-Flux-Residual          L2-NORM 
          0                 1           2             4    7     1       0.1042587085E-01       4    7    1         0.5454161597E+00      0.1585401945E+01
          0                 2           2             4    7     1      -0.1014154729E-02       4    7    1        -0.5454173624E-01      0.1581971752E+00
          0                 3           1             4    7     1       0.6906016170E-04       4    7    1         0.3817922048E-02      0.1104239887E-01

    ------------------------------------------------
       NWT REQUIRED            3 OUTER ITERATIONS 
       AND A TOTAL OF          5 INNER ITERATIONS.
    ------------------------------------------------

 NO OUTPUT CONTROL FOR STRESS PERIOD   29   TIME STEP    7
 
 SOLVING FOR HEAD 
                                                   Max.-Head-Change                         Max.-Flux-Residual
  Residual-Control   Outer-Iter.   Inner-Iter.     Column Row Layer    Maximum-Head-Change  Column Row Layer    Maximum-Flux-Residual          L2-NORM 
          0                 1           2             4    7     1       0.1035513550E-01       4    7    1         0.5417058314E+00      0.1568941033E+01
          0                 2           2             4    7     1      -0.1007274080E-02       4    7    1        -0.5417070152E-01      0.1565954027E+00
          0                 3           1             4    7     1       0.6859161524E-04       4    7    1         0.3791949621E-02      0.1093443502E-01

    ------------------------------------------------
       NWT REQUIRED            3 OUTER ITERATIONS 
       AND A TOTAL OF          5 INNER ITERATIONS.
    ------------------------------------------------

 NO OUTPUT CONTROL FOR STRESS PERIOD   29   TIME STEP    8
 
 SOLVING FOR HEAD 
                                                   Max.-Head-Change                         Max.-Flux-Residual
  Residual-Control   Outer-Iter.   Inner-Iter.     Column Row Layer    Maximum-Head-Change  Column Row Layer    Maximum-Flux-Residual          L2-NORM 
          0                 1           2             4    7     1       0.1028507919E-01       4    7    1         0.5380309810E+00      0.1553778864E+01
          0                 2           2             4    7     1      -0.1000459484E-02       4    7    1        -0.5380321463E-01      0.1551177042E+00
          0                 3           1             4    7     1       0.6812756700E-04       4    7    1         0.3766225558E-02      0.1083473989E-01

    ------------------------------------------------
       NWT REQUIRED            3 OUTER ITERATIONS 
       AND A TOTAL OF          5 INNER ITERATIONS.
    ------------------------------------------------

 NO OUTPUT CONTROL FOR STRESS PERIOD   29   TIME STEP    9
 
 SOLVING FOR HEAD 
                                                   Max.-Head-Change                         Max.-Flux-Residual
  Residual-Control   Outer-Iter.   Inner-Iter.     Column Row Layer    Maximum-Head-Change  Column Row Layer    Maximum-Flux-Residual          L2-NORM 
          0                 1           2             4    7     1       0.1021583146E-01       4    7    1         0.5343986495E+00      0.1539737425E+01
          0                 2           2             4    7     1      -0.9937235410E-03       4    7    1        -0.5343997962E-01      0.1537468186E+00
          0                 3           1             4    7     1       0.6766887420E-04       4    7    1         0.3740799107E-02      0.1074166509E-01

    ------------------------------------------------
       NWT REQUIRED            3 OUTER ITERATIONS 
       AND A TOTAL OF          5 INNER ITERATIONS.
    ------------------------------------------------

 NO OUTPUT CONTROL FOR STRESS PERIOD   29   TIME STEP   10
 
 SOLVING FOR HEAD 
                                                   Max.-Head-Change                         Max.-Flux-Residual
  Residual-Control   Outer-Iter.   Inner-Iter.     Column Row Layer    Maximum-Head-Change  Column Row Layer    Maximum-Flux-Residual          L2-NORM 
          0                 1           2             4    7     1       0.1014711287E-01       4    7    1         0.5307936185E+00      0.1526655347E+01
          0                 2           2             4    7     1      -0.9870390683E-03       4    7    1        -0.5307947472E-01      0.1524680984E+00
          0                 3           1             4    7     1       0.6721368689E-04       4    7    1         0.3715563762E-02      0.1065449183E-01

    ------------------------------------------------
       NWT REQUIRED            3 OUTER ITERATIONS 
       AND A TOTAL OF          5 INNER ITERATIONS.
    ------------------------------------------------

 NO OUTPUT CONTROL FOR STRESS PERIOD   29   TIME STEP   11
 
 SOLVING FOR HEAD 
                                                   Max.-Head-Change                         Max.-Flux-Residual
  Residual-Control   Outer-Iter.   Inner-Iter.     Column Row Layer    Maximum-Head-Change  Column Row Layer    Maximum-Flux-Residual          L2-NORM 
          0                 1           2             4    7     1       0.1007905671E-01       4    7    1         0.5272233335E+00      0.1514407867E+01
          0                 2           2             4    7     1      -0.9804190335E-03       4    7    1        -0.5272244444E-01      0.1512678541E+00
          0                 3           1             4    7     1       0.6676288750E-04       4    7    1         0.3690571662E-02      0.1057296889E-01

    ------------------------------------------------
       NWT REQUIRED            3 OUTER ITERATIONS 
       AND A TOTAL OF          5 INNER ITERATIONS.
    ------------------------------------------------

 NO OUTPUT CONTROL FOR STRESS PERIOD   29   TIME STEP   12
 
 SOLVING FOR HEAD 
                                                   Max.-Head-Change                         Max.-Flux-Residual
  Residual-Control   Outer-Iter.   Inner-Iter.     Column Row Layer    Maximum-Head-Change  Column Row Layer    Maximum-Flux-Residual          L2-NORM 
          0                 1           2             4    7     1       0.1001165901E-01       4    7    1         0.5236873951E+00      0.1502879405E+01
          0                 2           2             4    7     1      -0.9738630487E-03       4    7    1        -0.5236884885E-01      0.1501368412E+00
          0                 3           1             4    7     1       0.6631644905E-04       4    7    1         0.3665819958E-02      0.1049584514E-01

    ------------------------------------------------
       NWT REQUIRED            3 OUTER ITERATIONS 
       AND A TOTAL OF          5 INNER ITERATIONS.
    ------------------------------------------------

 NO OUTPUT CONTROL FOR STRESS PERIOD   29   TIME STEP   13
 
 SOLVING FOR HEAD 
                                                   Max.-Head-Change                         Max.-Flux-Residual
  Residual-Control   Outer-Iter.   Inner-Iter.     Column Row Layer    Maximum-Head-Change  Column Row Layer    Maximum-Flux-Residual          L2-NORM 
          0                 1           2             4    7     1       0.9944914419E-02       4    7    1         0.5201855965E+00      0.1491969713E+01
          0                 2           2             4    7     1      -0.9673705949E-03       4    7    1        -0.5201866729E-01      0.1490631704E+00
          0                 3           1             4    7     1       0.6587433758E-04       4    7    1         0.3641307272E-02      0.1042241848E-01

    ------------------------------------------------
       NWT REQUIRED            3 OUTER ITERATIONS 
       AND A TOTAL OF          5 INNER ITERATIONS.
    ------------------------------------------------

 NO OUTPUT CONTROL FOR STRESS PERIOD   29   TIME STEP   14
 
 SOLVING FOR HEAD 
                                                   Max.-Head-Change                         Max.-Flux-Residual
  Residual-Control   Outer-Iter.   Inner-Iter.     Column Row Layer    Maximum-Head-Change  Column Row Layer    Maximum-Flux-Residual          L2-NORM 
          0                 1           2             4    7     1       0.9878950686E-02       4    7    1         0.5167249729E+00      0.1481613135E+01
          0                 2           2             4    7     1      -0.9609540971E-03       4    7    1        -0.5167260323E-01      0.1480453533E+00
          0                 3           1             4    7     1       0.6543739813E-04       4    7    1         0.3617082798E-02      0.1035261198E-01

    ------------------------------------------------
       NWT REQUIRED            3 OUTER ITERATIONS 
       AND A TOTAL OF          5 INNER ITERATIONS.
    ------------------------------------------------

 NO OUTPUT CONTROL FOR STRESS PERIOD   29   TIME STEP   15
 
 SOLVING FOR HEAD 
                                                   Max.-Head-Change                         Max.-Flux-Residual
  Residual-Control   Outer-Iter.   Inner-Iter.     Column Row Layer    Maximum-Head-Change  Column Row Layer    Maximum-Flux-Residual          L2-NORM 
          0                 1           2             4    7     1       0.9813484672E-02       4    7    1         0.5132902110E+00      0.1471713712E+01
          0                 2           2             4    7     1      -0.9545860144E-03       4    7    1        -0.5132912539E-01      0.1470697229E+00
          0                 3           1             4    7     1       0.6500375566E-04       4    7    1         0.3593039356E-02      0.1028556166E-01

    ------------------------------------------------
       NWT REQUIRED            3 OUTER ITERATIONS 
       AND A TOTAL OF          5 INNER ITERATIONS.
    ------------------------------------------------

 NO OUTPUT CONTROL FOR STRESS PERIOD   29   TIME STEP   16
 
 SOLVING FOR HEAD 
                                                   Max.-Head-Change                         Max.-Flux-Residual
  Residual-Control   Outer-Iter.   Inner-Iter.     Column Row Layer    Maximum-Head-Change  Column Row Layer    Maximum-Flux-Residual          L2-NORM 
          0                 1           2             4    7     1       0.9748652055E-02       4    7    1         0.5098885673E+00      0.1462238126E+01
          0                 2           2             4    7     1      -0.9482795440E-03       4    7    1        -0.5098895937E-01      0.1461344992E+00
          0                 3           1             4    7     1       0.6457430846E-04       4    7    1         0.3569227730E-02      0.1022127670E-01

    ------------------------------------------------
       NWT REQUIRED            3 OUTER ITERATIONS 
       AND A TOTAL OF          5 INNER ITERATIONS.
    ------------------------------------------------

 NO OUTPUT CONTROL FOR STRESS PERIOD   29   TIME STEP   17
 
 SOLVING FOR HEAD 
                                                   Max.-Head-Change                         Max.-Flux-Residual
  Residual-Control   Outer-Iter.   Inner-Iter.     Column Row Layer    Maximum-Head-Change  Column Row Layer    Maximum-Flux-Residual          L2-NORM 
          0                 1           2             4    7     1       0.9684450226E-02       4    7    1         0.5065197642E+00      0.1453122477E+01
          0                 2           2             4    7     1      -0.9420344330E-03       4    7    1        -0.5065207746E-01      0.1452337822E+00
          0                 3           1             4    7     1       0.6414904008E-04       4    7    1         0.3545646010E-02      0.1015904560E-01

    ------------------------------------------------
       NWT REQUIRED            3 OUTER ITERATIONS 
       AND A TOTAL OF          5 INNER ITERATIONS.
    ------------------------------------------------

 NO OUTPUT CONTROL FOR STRESS PERIOD   29   TIME STEP   18
 
 SOLVING FOR HEAD 
                                                   Max.-Head-Change                         Max.-Flux-Residual
  Residual-Control   Outer-Iter.   Inner-Iter.     Column Row Layer    Maximum-Head-Change  Column Row Layer    Maximum-Flux-Residual          L2-NORM 
          0                 1           2             4    7     1       0.9620867683E-02       4    7    1         0.5031836665E+00      0.1444328799E+01
          0                 2           2             4    7     1      -0.9358495617E-03       4    7    1        -0.5031846612E-01      0.1443641123E+00
          0                 3           1             4    7     1       0.6372787336E-04       4    7    1         0.3522293209E-02      0.1009952465E-01

    ------------------------------------------------
       NWT REQUIRED            3 OUTER ITERATIONS 
       AND A TOTAL OF          5 INNER ITERATIONS.
    ------------------------------------------------

 NO OUTPUT CONTROL FOR STRESS PERIOD   29   TIME STEP   19
 
 SOLVING FOR HEAD 
                                                   Max.-Head-Change                         Max.-Flux-Residual
  Residual-Control   Outer-Iter.   Inner-Iter.     Column Row Layer    Maximum-Head-Change  Column Row Layer    Maximum-Flux-Residual          L2-NORM 
          0                 1           2             4    7     1       0.9558032442E-02       4    7    1         0.4998869907E+00      0.1435820002E+01
          0                 2           2             4    7     1      -0.9297373832E-03       4    7    1        -0.4998879700E-01      0.1435210593E+00
          0                 3           1             4    7     1       0.6331165702E-04       4    7    1         0.3499216378E-02      0.1004078060E-01

    ------------------------------------------------
       NWT REQUIRED            3 OUTER ITERATIONS 
       AND A TOTAL OF          5 INNER ITERATIONS.
    ------------------------------------------------

 NO OUTPUT CONTROL FOR STRESS PERIOD   29   TIME STEP   20
 
 SOLVING FOR HEAD 
                                                   Max.-Head-Change                         Max.-Flux-Residual
  Residual-Control   Outer-Iter.   Inner-Iter.     Column Row Layer    Maximum-Head-Change  Column Row Layer    Maximum-Flux-Residual          L2-NORM 
          0                 1           2             4    7     1       0.9495666824E-02       4    7    1         0.4966144353E+00      0.1427558229E+01
          0                 2           2             4    7     1      -0.9236708868E-03       4    7    1        -0.4966153996E-01      0.1427020061E+00
          0                 3           1             4    7     1       0.6289855105E-04       4    7    1         0.3476308390E-02      0.9984238318E-02

    ------------------------------------------------
       NWT REQUIRED            3 OUTER ITERATIONS 
       AND A TOTAL OF          5 INNER ITERATIONS.
    ------------------------------------------------

 NO OUTPUT CONTROL FOR STRESS PERIOD   29   TIME STEP   21
 
 SOLVING FOR HEAD 
                                                   Max.-Head-Change                         Max.-Flux-Residual
  Residual-Control   Outer-Iter.   Inner-Iter.     Column Row Layer    Maximum-Head-Change  Column Row Layer    Maximum-Flux-Residual          L2-NORM 
          0                 1           2             4    7     1       0.9434039302E-02       4    7    1         0.4933808555E+00      0.1419530777E+01
          0                 2           2             4    7     1      -0.9176761868E-03       4    7    1        -0.4933818046E-01      0.1419057766E+00
          0                 3           1             4    7     1       0.6249033462E-04       4    7    1         0.3453673229E-02      0.9929341240E-02

    ------------------------------------------------
       NWT REQUIRED            3 OUTER ITERATIONS 
       AND A TOTAL OF          5 INNER ITERATIONS.
    ------------------------------------------------

 NO OUTPUT CONTROL FOR STRESS PERIOD   29   TIME STEP   22
 
 SOLVING FOR HEAD 
                                                   Max.-Head-Change                         Max.-Flux-Residual
  Residual-Control   Outer-Iter.   Inner-Iter.     Column Row Layer    Maximum-Head-Change  Column Row Layer    Maximum-Flux-Residual          L2-NORM 
          0                 1           2             4    7     1       0.9372866600E-02       4    7    1         0.4901709181E+00      0.1411700088E+01
          0                 2           2             4    7     1      -0.9117257291E-03       4    7    1        -0.4901718527E-01      0.1411276847E+00
          0                 3           1             4    7     1       0.6208513022E-04       4    7    1         0.3431203563E-02      0.9874955660E-02

    ------------------------------------------------
       NWT REQUIRED            3 OUTER ITERATIONS 
       AND A TOTAL OF          5 INNER ITERATIONS.
    ------------------------------------------------

 NO OUTPUT CONTROL FOR STRESS PERIOD   29   TIME STEP   23
 
 SOLVING FOR HEAD 
                                                   Max.-Head-Change                         Max.-Flux-Residual
  Residual-Control   Outer-Iter.   Inner-Iter.     Column Row Layer    Maximum-Head-Change  Column Row Layer    Maximum-Flux-Residual          L2-NORM 
          0                 1           2             4    7     1       0.9312416484E-02       4    7    1         0.4869991893E+00      0.1404056091E+01
          0                 2           2             4    7     1      -0.9058455599E-03       4    7    1        -0.4870001095E-01      0.1403682291E+00
          0                 3           1             4    7     1       0.6168471324E-04       4    7    1         0.3409001378E-02      0.9822327371E-02

    ------------------------------------------------
       NWT REQUIRED            3 OUTER ITERATIONS 
       AND A TOTAL OF          5 INNER ITERATIONS.
    ------------------------------------------------

 NO OUTPUT CONTROL FOR STRESS PERIOD   29   TIME STEP   24
 
 SOLVING FOR HEAD 
                                                   Max.-Head-Change                         Max.-Flux-Residual
  Residual-Control   Outer-Iter.   Inner-Iter.     Column Row Layer    Maximum-Head-Change  Column Row Layer    Maximum-Flux-Residual          L2-NORM 
          0                 1           2             4    7     1       0.9252544959E-02       4    7    1         0.4838576119E+00      0.1396576418E+01
          0                 2           2             4    7     1      -0.9000216720E-03       4    7    1        -0.4838585181E-01      0.1396244837E+00
          0                 3           1             4    7     1       0.6128812765E-04       4    7    1         0.3387010220E-02      0.9770815575E-02

    ------------------------------------------------
       NWT REQUIRED            3 OUTER ITERATIONS 
       AND A TOTAL OF          5 INNER ITERATIONS.
    ------------------------------------------------

 NO OUTPUT CONTROL FOR STRESS PERIOD   29   TIME STEP   25
 
 SOLVING FOR HEAD 
                                                   Max.-Head-Change                         Max.-Flux-Residual
  Residual-Control   Outer-Iter.   Inner-Iter.     Column Row Layer    Maximum-Head-Change  Column Row Layer    Maximum-Flux-Residual          L2-NORM 
          0                 1           2             4    7     1       0.9193107526E-02       4    7    1         0.4807387197E+00      0.1389248299E+01
          0                 2           2             4    7     1      -0.8942400098E-03       4    7    1        -0.4807396118E-01      0.1388952126E+00
          0                 3           1             4    7     1       0.6089441835E-04       4    7    1         0.3365177896E-02      0.9720768787E-02

    ------------------------------------------------
       NWT REQUIRED            3 OUTER ITERATIONS 
       AND A TOTAL OF          5 INNER ITERATIONS.
    ------------------------------------------------

 NO OUTPUT CONTROL FOR STRESS PERIOD   29   TIME STEP   26
 
 SOLVING FOR HEAD 
                                                   Max.-Head-Change                         Max.-Flux-Residual
  Residual-Control   Outer-Iter.   Inner-Iter.     Column Row Layer    Maximum-Head-Change  Column Row Layer    Maximum-Flux-Residual          L2-NORM 
          0                 1           2             4    7     1       0.9134375678E-02       4    7    1         0.4776569621E+00      0.1382057991E+01
          0                 2           2             4    7     1      -0.8885269821E-03       4    7    1        -0.4776578407E-01      0.1381793114E+00
          0                 3           1             4    7     1       0.6050538263E-04       4    7    1         0.3343605500E-02      0.9670214858E-02

    ------------------------------------------------
       NWT REQUIRED            3 OUTER ITERATIONS 
       AND A TOTAL OF          5 INNER ITERATIONS.
    ------------------------------------------------

 NO OUTPUT CONTROL FOR STRESS PERIOD   29   TIME STEP   27
 
 SOLVING FOR HEAD 
                                                   Max.-Head-Change                         Max.-Flux-Residual
  Residual-Control   Outer-Iter.   Inner-Iter.     Column Row Layer    Maximum-Head-Change  Column Row Layer    Maximum-Flux-Residual          L2-NORM 
          0                 1           2             4    7     1       0.9076336264E-02       4    7    1         0.4746117884E+00      0.1375004089E+01
          0                 2           2             4    7     1      -0.8828813102E-03       4    7    1        -0.4746126537E-01      0.1374767627E+00
          0                 3           1             4    7     1       0.6012093353E-04       4    7    1         0.3322289199E-02      0.9621107414E-02

    ------------------------------------------------
       NWT REQUIRED            3 OUTER ITERATIONS 
       AND A TOTAL OF          5 INNER ITERATIONS.
    ------------------------------------------------

 NO OUTPUT CONTROL FOR STRESS PERIOD   29   TIME STEP   28
 
 SOLVING FOR HEAD 
                                                   Max.-Head-Change                         Max.-Flux-Residual
  Residual-Control   Outer-Iter.   Inner-Iter.     Column Row Layer    Maximum-Head-Change  Column Row Layer    Maximum-Flux-Residual          L2-NORM 
          0                 1           2             4    7     1       0.9018708287E-02       4    7    1         0.4715878878E+00      0.1368062123E+01
          0                 2           2             4    7     1      -0.8772756594E-03       4    7    1        -0.4715887398E-01      0.1367850409E+00
          0                 3           1             4    7     1       0.5973920972E-04       4    7    1         0.3301121802E-02      0.9573042357E-02

    ------------------------------------------------
       NWT REQUIRED            3 OUTER ITERATIONS 
       AND A TOTAL OF          5 INNER ITERATIONS.
    ------------------------------------------------

 NO OUTPUT CONTROL FOR STRESS PERIOD   29   TIME STEP   29
 
 SOLVING FOR HEAD 
                                                   Max.-Head-Change                         Max.-Flux-Residual
  Residual-Control   Outer-Iter.   Inner-Iter.     Column Row Layer    Maximum-Head-Change  Column Row Layer    Maximum-Flux-Residual          L2-NORM 
          0                 1           2             4    7     1       0.8961708137E-02       4    7    1         0.4685926337E+00      0.1378373354E+01
          0                 2           2             4    7     1      -0.8717310782E-03       4    7    1        -0.4685934720E-01      0.1377472509E+00
          0                 3           1             4    7     1       0.5936164402E-04       4    7    1         0.3280154925E-02      0.9634188472E-02

    ------------------------------------------------
       NWT REQUIRED            3 OUTER ITERATIONS 
       AND A TOTAL OF          5 INNER ITERATIONS.
    ------------------------------------------------

 NO OUTPUT CONTROL FOR STRESS PERIOD   29   TIME STEP   30



 STREAM LISTING     PERIOD     29   STEP       30

 LAYER ROW COL. STREAM  RCH.  FLOW INTO     FLOW TO   FLOW OUT OF   OVRLND.     DIRECT     STREAM       STREAM     STREAM     STREAM   STREAMBED  STREAMBED
                SEG.NO.  NO.  STRM. RCH.    AQUIFER    STRM. RCH.    RUNOFF     PRECIP       ET          HEAD       DEPTH      WIDTH   CONDCTNC.   GRADIENT

   1    1    1     1     1    1.8581E+01  2.1154E-01   1.8369E+01  0.000E+00  0.000E+00  0.000E+00  1.09412E+03  1.075E+00  1.154E+01  5.191E-02  1.358E+00
   1    2    2     1     2    1.8369E+01  3.2630E-01   1.8043E+01  0.000E+00  0.000E+00  0.000E+00  1.08913E+03  1.070E+00  1.145E+01  8.016E-02  1.357E+00
   1    3    3     1     3    1.8043E+01  2.7702E-01   1.7766E+01  0.000E+00  0.000E+00  0.000E+00  1.08348E+03  1.065E+00  1.136E+01  6.814E-02  1.355E+00
   1    3    4     1     4    1.7766E+01  2.5406E-01   1.7512E+01  0.000E+00  0.000E+00  0.000E+00  1.07847E+03  1.061E+00  1.127E+01  6.256E-02  1.354E+00
   1    4    5     2     1    1.5512E+01  3.0432E-01   1.5207E+01  0.000E+00  0.000E+00  0.000E+00  1.07284E+03  9.015E-01  1.200E+01  7.800E-02  1.301E+00
   1    5    6     2     2    1.5207E+01  2.3352E-01   1.4974E+01  0.000E+00  0.000E+00  0.000E+00  1.06740E+03  8.920E-01  1.200E+01  6.000E-02  1.297E+00
   1    6    6     2     3    1.4974E+01  2.3302E-01   1.4741E+01  0.000E+00  0.000E+00  0.000E+00  1.06268E+03  8.837E-01  1.200E+01  6.000E-02  1.295E+00
   1    7    6     2     4    1.4741E+01  2.3252E-01   1.4508E+01  0.000E+00  0.000E+00  0.000E+00  1.05795E+03  8.754E-01  1.200E+01  6.000E-02  1.292E+00
   1    8    6     2     5    1.4508E+01  2.3202E-01   1.4276E+01  0.000E+00  0.000E+00  0.000E+00  1.05323E+03  8.670E-01  1.200E+01  6.000E-02  1.289E+00
   1    3    5     3     1    2.0000E+00  2.8252E-01   1.7175E+00  0.000E+00  0.000E+00  0.000E+00  1.07555E+03  1.909E+00  9.636E+00  7.227E-02  1.955E+00
   1    3    6     3     2    1.7175E+00  2.4905E-01   1.4684E+00  0.000E+00  0.000E+00  0.000E+00  1.07264E+03  1.727E+00  8.909E+00  6.682E-02  1.864E+00
   1    3    7     3     3    1.4684E+00  1.9718E-01   1.2712E+00  0.000E+00  0.000E+00  0.000E+00  1.06987E+03  1.555E+00  8.218E+00  5.547E-02  1.777E+00
   1    4    8     3     4    1.2712E+00  2.2567E-01   1.0456E+00  0.000E+00  0.000E+00  0.000E+00  1.06682E+03  1.364E+00  7.455E+00  6.709E-02  1.682E+00
   1    5    8     3     5    1.0456E+00  1.5790E-01   8.8768E-01  0.000E+00  0.000E+00  0.000E+00  1.06362E+03  1.164E+00  6.655E+00  4.991E-02  1.582E+00
   1    6    8     3     6    8.8768E-01  5.5980E-02   8.3170E-01  0.000E+00  0.000E+00  0.000E+00  1.06158E+03  1.036E+00  6.145E+00  1.844E-02  1.518E+00
   1    5   10     4     1    1.0000E+01  9.0919E-02   9.9091E+00  0.000E+00  0.000E+00  0.000E+00  1.07836E+03  6.368E-01  1.000E+01  2.500E-02  1.212E+00
   1    5    9     4     2    9.9091E+00  1.8158E-01   9.7275E+00  0.000E+00  0.000E+00  0.000E+00  1.07154E+03  6.315E-01  1.000E+01  5.000E-02  1.211E+00
   1    6    8     4     3    9.7275E+00  1.2689E-01   9.6006E+00  0.000E+00  0.000E+00  0.000E+00  1.06381E+03  6.256E-01  1.000E+01  3.500E-02  1.209E+00
   1    6    8     5     1    1.0432E+01  2.2686E-01   1.0205E+01  0.000E+00  0.000E+00  0.000E+00  1.05868E+03  6.790E-01  1.542E+01  6.166E-02  1.226E+00
   1    7    7     5     2    1.0205E+01  2.7894E-01   9.9265E+00  0.000E+00  0.000E+00  0.000E+00  1.05417E+03  6.732E-01  1.519E+01  7.594E-02  1.224E+00
   1    8    7     5     3    9.9265E+00  1.9221E-01   9.7343E+00  0.000E+00  0.000E+00  0.000E+00  1.04992E+03  6.676E-01  1.497E+01  5.241E-02  1.223E+00
   1    8    6     5     4    9.7343E+00  1.3577E-01   9.5985E+00  0.000E+00  0.000E+00  0.000E+00  1.04691E+03  6.637E-01  1.482E+01  3.706E-02  1.221E+00
   1    9    6     6     1    2.3875E+01  2.5104E-01   2.3624E+01  0.000E+00  0.000E+00  0.000E+00  1.04391E+03  1.184E+00  1.200E+01  6.000E-02  1.395E+00
   1   10    7     6     2    2.3624E+01  2.5059E-01   2.3373E+01  0.000E+00  0.000E+00  0.000E+00  1.03936E+03  1.177E+00  1.200E+01  6.000E-02  1.392E+00
   1   11    7     6     3    2.3373E+01  2.5014E-01   2.3123E+01  0.000E+00  0.000E+00  0.000E+00  1.03481E+03  1.169E+00  1.200E+01  6.000E-02  1.390E+00
   1   12    7     6     4    2.3123E+01  2.4969E-01   2.2873E+01  0.000E+00  0.000E+00  0.000E+00  1.03025E+03  1.161E+00  1.200E+01  6.000E-02  1.387E+00
   1   13    7     6     5    2.2873E+01  1.2589E-02   2.2861E+01  0.000E+00  0.000E+00  0.000E+00  1.02707E+03  1.157E+00  1.200E+01  2.400E-02  1.749E-01
   1   14    9     7     1    1.5000E+02  1.3850E+00   1.4862E+02  0.000E+00  0.000E+00  0.000E+00  1.03987E+03  2.288E+00  5.529E+01  5.593E-01  8.254E-01
   1   13    8     7     2    1.4862E+02  1.9998E+00   1.4662E+02  0.000E+00  0.000E+00  0.000E+00  1.03478E+03  2.279E+00  5.525E+01  6.147E-01  1.084E+00
   1   13    7     7     3    1.4662E+02  1.7566E+00   1.4486E+02  0.000E+00  0.000E+00  0.000E+00  1.02969E+03  2.269E+00  5.521E+01  5.584E-01  1.049E+00
   1   13    6     8     1    1.6772E+02  1.1879E+00   1.6653E+02  0.000E+00  0.000E+00  0.000E+00  1.02481E+03  2.933E+00  4.253E+01  4.334E-01  9.135E-01
   1   13    5     8     2    1.6653E+02  4.2074E-01   1.6611E+02  0.000E+00  0.000E+00  0.000E+00  1.01855E+03  2.928E+00  4.246E+01  4.327E-01  3.242E-01
   1   13    4     8     3    1.6611E+02 -1.5229E+00   1.6763E+02  0.000E+00  0.000E+00  0.000E+00  1.01231E+03  2.932E+00  4.251E+01  4.332E+00 -1.172E-01
   1   13    3     8     4    1.6763E+02 -3.1584E+00   1.7079E+02  0.000E+00  0.000E+00  0.000E+00  1.00607E+03  2.947E+00  4.273E+01  4.355E+00 -2.418E-01
   1   13    2     8     5    1.7079E+02 -2.3764E+00   1.7317E+02  0.000E+00  0.000E+00  0.000E+00  9.99840E+02  2.965E+00  4.299E+01  4.381E+00 -1.808E-01
   1   13    1     8     6    1.7317E+02 -1.9179E+00   1.7509E+02  0.000E+00  0.000E+00  0.000E+00  9.94854E+02  2.979E+00  4.319E+01  2.641E+00 -2.421E-01
   1    8    6     9     1    0.0000E+00  0.0000E+00   0.0000E+00  0.000E+00  0.000E+00  0.000E+00  1.07875E+03  0.000E+00  4.000E+00  0.000E+00  1.000E+00
   1    8    5     9     2    0.0000E+00  0.0000E+00   0.0000E+00  0.000E+00  0.000E+00  0.000E+00  1.07825E+03  0.000E+00  4.000E+00  0.000E+00  1.000E+00





UNSATURATED ZONE PACKAGE VOLUMETRIC BUDGET FOR  TIME STEP    30 STRESS PERIOD   29
  ------------------------------------------------------------------------------



     CUMULATIVE VOLUMES      L**3       RATES FOR THIS TIME STEP      L**3/T
     ------------------                 ------------------------

           IN:                                      IN:
           ---                                      ---
        INFILTRATION =   870261837.4417          INFILTRATION =           0.8475

          OUT:                                     OUT:
          ----                                     ----
              UZF ET =   869454918.5771                UZF ET =           0.8475
        UZF RECHARGE =       73224.0000          UZF RECHARGE =       0.0000E+00

            IN - OUT =      733694.8646              IN - OUT =       0.0000E+00

          STORAGE:                                 STORAGE:
          --------                                 --------
      STORAGE CHANGE =      733694.9096        STORAGE CHANGE =      -1.8259E-15

 PERCENT DISCREPANCY IS DIFFERENCE BETWEEN IN-OUT MINUS CHANGE IN STORAGE
 DIVIDED BY THE AVERAGE OF IN AND OUT TIMES 100

 PERCENT DISCREPANCY =           0.00     PERCENT DISCREPANCY =           0.00






1
  VOLUMETRIC BUDGET FOR AGRICULTURAL FIELDS AT  END OF TIME STEP   30, STRESS PERIOD  29
  ------------------------------------------------------------------------------

     CUMULATIVE VOLUMES      L**3       RATES FOR THIS TIME STEP      L**3/T
     ------------------                 ------------------------

           IN:                                      IN:
           ---                                      ---
               AG WELLS  =   807776960.0000                 AG WELLS  =           0.0000
      DIVERSION SEGMENTS =           0.0000        DIVERSION SEGMENTS =           0.0000
       IRRIGATION PONDS  =           0.0000         IRRIGATION PONDS  =           0.0000
           GW IRRIGATION =           0.0000             GW IRRIGATION =           0.0000
           SW IRRIGATION =           0.0000             SW IRRIGATION =           0.0000
        SYSTEM LOSSES GW =           0.0000          SYSTEM LOSSES GW =           0.0000
        SYSTEM LOSSES SW =           0.0000          SYSTEM LOSSES SW =           0.0000

                TOTAL IN =   807776960.0000                  TOTAL IN =           0.0000

          OUT:                                     OUT:
          ----                                     ----
               AG WELLS  =           0.0000                 AG WELLS  =           0.0000
      DIVERSION SEGMENTS =           0.0000        DIVERSION SEGMENTS =           0.0000
       IRRIGATION PONDS  =           0.0000         IRRIGATION PONDS  =           0.0000
           GW IRRIGATION =   807776960.0000             GW IRRIGATION =           0.0000
           SW IRRIGATION =           0.0000             SW IRRIGATION =           0.0000
        SYSTEM LOSSES GW =           0.0000          SYSTEM LOSSES GW =           0.0000
        SYSTEM LOSSES SW =           0.0000          SYSTEM LOSSES SW =           0.0000

               TOTAL OUT =   807776960.0000                 TOTAL OUT =           0.0000

                IN - OUT =           0.0000                  IN - OUT =           0.0000

     PERCENT DISCREPANCY =           0.00         PERCENT DISCREPANCY =           0.00



1
  VOLUMETRIC BUDGET FOR ENTIRE MODEL AT END OF TIME STEP   30, STRESS PERIOD  29
  ------------------------------------------------------------------------------

     CUMULATIVE VOLUMES      L**3       RATES FOR THIS TIME STEP      L**3/T
     ------------------                 ------------------------

           IN:                                      IN:
           ---                                      ---
             STORAGE     =  1121419776.0000               STORAGE     =           3.0787
       CONSTANT HEAD     =           0.0000         CONSTANT HEAD     =           0.0000
     HEAD DEP BOUNDS     =    21248274.0000       HEAD DEP BOUNDS     =           0.2891
      STREAM LEAKAGE     =   876039680.0000        STREAM LEAKAGE     =          12.4698
        UZF RECHARGE     =       73223.9531          UZF RECHARGE     =           0.0000
               GW ET     =           0.0000                 GW ET     =           0.0000
     SURFACE LEAKAGE     =           0.0000       SURFACE LEAKAGE     =           0.0000
           AG WELLS      =           0.0000             AG WELLS      =           0.0000

                TOTAL IN =  2018780928.0000                  TOTAL IN =          15.8376

          OUT:                                     OUT:
          ----                                     ----
             STORAGE     =   455806240.0000               STORAGE     =           6.5749
       CONSTANT HEAD     =           0.0000         CONSTANT HEAD     =           0.0000
     HEAD DEP BOUNDS     =    21287998.0000       HEAD DEP BOUNDS     =           0.2880
      STREAM LEAKAGE     =   733916224.0000        STREAM LEAKAGE     =           8.9757
        UZF RECHARGE     =           0.0000          UZF RECHARGE     =           0.0000
               GW ET     =           0.0000                 GW ET     =           0.0000
     SURFACE LEAKAGE     =           0.0000       SURFACE LEAKAGE     =           0.0000
           AG WELLS      =   807776960.0000             AG WELLS      =           0.0000

               TOTAL OUT =  2018787328.0000                 TOTAL OUT =          15.8386

                IN - OUT =       -6400.0000                  IN - OUT =      -9.9468E-04

     PERCENT DISCREPANCY =          -0.00         PERCENT DISCREPANCY =          -0.01






         TIME SUMMARY AT END OF TIME STEP   30 IN STRESS PERIOD   29
                    SECONDS     MINUTES      HOURS       DAYS        YEARS
                    -----------------------------------------------------------
   TIME STEP LENGTH  87667.      1461.1      24.352      1.0147     2.77799E-03
 STRESS PERIOD TIME 2.63000E+06  43833.      730.56      30.440     8.33397E-02
         TOTAL TIME 7.37266E+07 1.22878E+06  20480.      853.32      2.3363    
1
1
                            STRESS PERIOD NO.   30, LENGTH =   2630000.    
                            -----------------------------------------------

                              NUMBER OF TIME STEPS =    30

                               MULTIPLIER FOR DELT =     1.000

                            INITIAL TIME STEP SIZE =   87666.66    

 REUSING NON-PARAMETER GHB CELLS FROM LAST STRESS PERIOD

      2 GHB CELLS

 REUSING STREAM SEGMENT DATA FROM LAST STRESS PERIOD



            AREAL INFILTRATION RATE
 READING ON UNIT   19 WITH FORMAT: (FREE)              

            1           2           3           4           5           6           7           8           9          10
 ........................................................................................................................
   1   1.0000E-10  2.0000E-10   0.000       0.000       0.000       0.000       0.000       0.000       0.000       0.000    
   2   2.0000E-10  1.0000E-10  2.0000E-10   0.000       0.000      8.0000E-10  8.0000E-10  5.0000E-10   0.000       0.000    
   3    0.000      5.0000E-10  1.0000E-10  1.0000E-10  8.0000E-10  8.0000E-10  5.0000E-10  5.0000E-10   0.000       0.000    
   4   8.0000E-10  5.0000E-10  1.0000E-10  1.0000E-10  1.0000E-10  1.0000E-10  1.0000E-10  1.0000E-10  2.0000E-10   0.000    
   5   8.0000E-10  5.0000E-10  1.0000E-10  1.0000E-10  1.0000E-10  1.0000E-10  1.0000E-10  1.0000E-10  1.0000E-10  1.0000E-10
   6   8.0000E-10  5.0000E-10  5.0000E-10  2.0000E-10  2.0000E-10  1.0000E-10  1.0000E-10  1.0000E-10  1.0000E-10  5.0000E-10
   7   8.0000E-10  5.0000E-10  5.0000E-10  2.0000E-10  2.0000E-10  1.0000E-10  1.0000E-10  2.0000E-10  2.0000E-10   0.000    
   8    0.000      5.0000E-10  5.0000E-10  2.0000E-10  2.0000E-10  1.0000E-10  1.0000E-10  2.0000E-10  5.0000E-10   0.000    
   9    0.000      5.0000E-10  5.0000E-10  2.0000E-10  2.0000E-10  1.0000E-10  1.0000E-10  2.0000E-10  5.0000E-10   0.000    
  10    0.000      5.0000E-10  5.0000E-10  2.0000E-10  2.0000E-10  1.0000E-10  1.0000E-10  2.0000E-10  5.0000E-10  8.0000E-10
  11    0.000      1.0000E-10  1.0000E-10  1.0000E-10  1.0000E-10  1.0000E-10  1.0000E-10  2.0000E-10  5.0000E-10   0.000    
  12   1.0000E-10  1.0000E-10  1.0000E-10  1.0000E-10  1.0000E-10  1.0000E-10  1.0000E-10  1.0000E-10  2.0000E-10   0.000    
  13   1.0000E-10  1.0000E-10  2.0000E-10  2.0000E-10  2.0000E-10  2.0000E-10  2.0000E-10  1.0000E-10  1.0000E-10   0.000    
  14    0.000      2.0000E-10  5.0000E-10  5.0000E-10  5.0000E-10  5.0000E-10  5.0000E-10  2.0000E-10  1.0000E-10   0.000    
  15    0.000       0.000      8.0000E-10  8.0000E-10  8.0000E-10  8.0000E-10   0.000       0.000       0.000       0.000    

                  ET RATE =  5.000000E-08

 USING ET EXTINCTION DEPTH FROM PREVIOUS STRESS PERIOD. CURRENT PERIOD IS:      30

 USING EXTINCTION WATER CONTENT FROM PREVIOUS STRESS PERIOD. CURRENT PERIOD IS:      30

 USING AIR ENTRY PRESSURE FROM PREVIOUS STRESS PERIOD. CURRENT PERIOD IS:      30

 USING ROOT PRESSURE HEAD FROM PREVIOUS STRESS PERIOD. CURRENT PERIOD IS:      30

 USING ROOT ACTIVITY FROM PREVIOUS STRESS PERIOD. CURRENT PERIOD IS:      30

 PROCESSING AG STRESS PERIOD DATA

 READING AG STRESS PERIOD DATA

 READING IRRIGATION SEGMENT

 READING IRRIGATION WELL

 READING SUPPLEMENTAL WELL

 NO IRRPOND OR REUSING IRRPOND DATA FROM LAST STRESS PERIOD

 END PROCESSING AG STRESS PERIOD DATA OPTIONS
 
 SOLVING FOR HEAD 
                                                   Max.-Head-Change                         Max.-Flux-Residual
  Residual-Control   Outer-Iter.   Inner-Iter.     Column Row Layer    Maximum-Head-Change  Column Row Layer    Maximum-Flux-Residual          L2-NORM 
          0                 1           2             5    6     1      -0.1665264108E-01       5    6    1        -0.8990109892E+00      0.2486890910E+01
          0                 2           2             5    6     1       0.1619851208E-02       5    6    1         0.8990133594E-01      0.2476638268E+00
          0                 3           2             5    6     1      -0.1103058298E-03       5    6    1        -0.6293093996E-02      0.1724335287E-01
          0                 4           1             5    6     1       0.4389163089E-05       5    6    1         0.2573879212E-03      0.6994563246E-03

    ------------------------------------------------
       NWT REQUIRED            4 OUTER ITERATIONS 
       AND A TOTAL OF          7 INNER ITERATIONS.
    ------------------------------------------------

 NO OUTPUT CONTROL FOR STRESS PERIOD   30   TIME STEP    1
 
 SOLVING FOR HEAD 
                                                   Max.-Head-Change                         Max.-Flux-Residual
  Residual-Control   Outer-Iter.   Inner-Iter.     Column Row Layer    Maximum-Head-Change  Column Row Layer    Maximum-Flux-Residual          L2-NORM 
          0                 1           2             5    6     1      -0.1604306140E-01       5    6    1        -0.8654622365E+00      0.2398510317E+01
          0                 2           2             5    6     1       0.1560550287E-02       5    6    1         0.8654644253E-01      0.2389180949E+00
          0                 3           2             5    6     1      -0.1062676587E-03       5    6    1        -0.6058251535E-02      0.1664197199E-01
          0                 4           1             5    6     1       0.4228480188E-05       5    6    1         0.2477828382E-03      0.6754782962E-03

    ------------------------------------------------
       NWT REQUIRED            4 OUTER ITERATIONS 
       AND A TOTAL OF          7 INNER ITERATIONS.
    ------------------------------------------------

 NO OUTPUT CONTROL FOR STRESS PERIOD   30   TIME STEP    2
 
 SOLVING FOR HEAD 
                                                   Max.-Head-Change                         Max.-Flux-Residual
  Residual-Control   Outer-Iter.   Inner-Iter.     Column Row Layer    Maximum-Head-Change  Column Row Layer    Maximum-Flux-Residual          L2-NORM 
          0                 1           2             5    6     1      -0.1546724584E-01       5    6    1        -0.8337823464E+00      0.2316498032E+01
          0                 2           2             5    6     1       0.1504544150E-02       5    6    1         0.8337843719E-01      0.2308648562E+00
          0                 3           1             5    6     1      -0.1024536211E-03       5    6    1        -0.5836491217E-02      0.1608895790E-01
          0                 4           1             5    6     1       0.4076493220E-05       5    6    1         0.2386988347E-03      0.6525919936E-03

    ------------------------------------------------
       NWT REQUIRED            4 OUTER ITERATIONS 
       AND A TOTAL OF          6 INNER ITERATIONS.
    ------------------------------------------------

 NO OUTPUT CONTROL FOR STRESS PERIOD   30   TIME STEP    3
 
 SOLVING FOR HEAD 
                                                   Max.-Head-Change                         Max.-Flux-Residual
  Residual-Control   Outer-Iter.   Inner-Iter.     Column Row Layer    Maximum-Head-Change  Column Row Layer    Maximum-Flux-Residual          L2-NORM 
          0                 1           2             5    7     1      -0.1505216792E-01       5    6    1        -0.8038525521E+00      0.2240463934E+01
          0                 2           2             5    7     1       0.1464166535E-02       5    6    1         0.8038544267E-01      0.2233589561E+00
          0                 3           1             5    7     1      -0.9970432214E-04       5    6    1        -0.5626981648E-02      0.1557250156E-01

    ------------------------------------------------
       NWT REQUIRED            3 OUTER ITERATIONS 
       AND A TOTAL OF          5 INNER ITERATIONS.
    ------------------------------------------------

 NO OUTPUT CONTROL FOR STRESS PERIOD   30   TIME STEP    4
 
 SOLVING FOR HEAD 
                                                   Max.-Head-Change                         Max.-Flux-Residual
  Residual-Control   Outer-Iter.   Inner-Iter.     Column Row Layer    Maximum-Head-Change  Column Row Layer    Maximum-Flux-Residual          L2-NORM 
          0                 1           2             5    7     1      -0.1475335516E-01       5    7    1        -0.7822739683E+00      0.2169577573E+01
          0                 2           2             5    7     1       0.1435099894E-02       5    7    1         0.7822745978E-01      0.2163564775E+00
          0                 3           1             5    7     1      -0.9772499624E-04       5    7    1        -0.5475923954E-02      0.1509026702E-01

    ------------------------------------------------
       NWT REQUIRED            3 OUTER ITERATIONS 
       AND A TOTAL OF          5 INNER ITERATIONS.
    ------------------------------------------------

 NO OUTPUT CONTROL FOR STRESS PERIOD   30   TIME STEP    5
 
 SOLVING FOR HEAD 
                                                   Max.-Head-Change                         Max.-Flux-Residual
  Residual-Control   Outer-Iter.   Inner-Iter.     Column Row Layer    Maximum-Head-Change  Column Row Layer    Maximum-Flux-Residual          L2-NORM 
          0                 1           2             5    7     1      -0.1445991597E-01       5    7    1        -0.7667480239E+00      0.2103357120E+01
          0                 2           2             5    7     1       0.1406555994E-02       5    7    1         0.7667484618E-01      0.2098099612E+00
          0                 3           1             5    7     1      -0.9578126623E-04       5    7    1        -0.5367241124E-02      0.1463935820E-01

    ------------------------------------------------
       NWT REQUIRED            3 OUTER ITERATIONS 
       AND A TOTAL OF          5 INNER ITERATIONS.
    ------------------------------------------------

 NO OUTPUT CONTROL FOR STRESS PERIOD   30   TIME STEP    6
 
 SOLVING FOR HEAD 
                                                   Max.-Head-Change                         Max.-Flux-Residual
  Residual-Control   Outer-Iter.   Inner-Iter.     Column Row Layer    Maximum-Head-Change  Column Row Layer    Maximum-Flux-Residual          L2-NORM 
          0                 1           2             4    7     1      -0.1430728353E-01       5    7    1        -0.7515006999E+00      0.2041366457E+01
          0                 2           2             4    7     1       0.1391704154E-02       5    7    1         0.7515009706E-01      0.2036759333E+00
          0                 3           1             4    7     1      -0.9476993495E-04       5    7    1        -0.5260508818E-02      0.1421461864E-01

    ------------------------------------------------
       NWT REQUIRED            3 OUTER ITERATIONS 
       AND A TOTAL OF          5 INNER ITERATIONS.
    ------------------------------------------------

 NO OUTPUT CONTROL FOR STRESS PERIOD   30   TIME STEP    7
 
 SOLVING FOR HEAD 
                                                   Max.-Head-Change                         Max.-Flux-Residual
  Residual-Control   Outer-Iter.   Inner-Iter.     Column Row Layer    Maximum-Head-Change  Column Row Layer    Maximum-Flux-Residual          L2-NORM 
          0                 1           2             4    7     1      -0.1417927750E-01       4    7    1        -0.7433782597E+00      0.1983206810E+01
          0                 2           2             4    7     1       0.1379252559E-02       4    7    1         0.7433752489E-01      0.1979186298E+00
          0                 3           1             4    7     1      -0.9392202846E-04       4    7    1        -0.5203631836E-02      0.1381741862E-01

    ------------------------------------------------
       NWT REQUIRED            3 OUTER ITERATIONS 
       AND A TOTAL OF          5 INNER ITERATIONS.
    ------------------------------------------------

 NO OUTPUT CONTROL FOR STRESS PERIOD   30   TIME STEP    8
 
 SOLVING FOR HEAD 
                                                   Max.-Head-Change                         Max.-Flux-Residual
  Residual-Control   Outer-Iter.   Inner-Iter.     Column Row Layer    Maximum-Head-Change  Column Row Layer    Maximum-Flux-Residual          L2-NORM 
          0                 1           2             4    7     1      -0.1404604973E-01       4    7    1        -0.7367264863E+00      0.1928525296E+01
          0                 2           2             4    7     1       0.1366293054E-02       4    7    1         0.7367234226E-01      0.1925010180E+00
          0                 3           1             4    7     1      -0.9303953489E-04       4    7    1        -0.5157069079E-02      0.1344312903E-01

    ------------------------------------------------
       NWT REQUIRED            3 OUTER ITERATIONS 
       AND A TOTAL OF          5 INNER ITERATIONS.
    ------------------------------------------------

 NO OUTPUT CONTROL FOR STRESS PERIOD   30   TIME STEP    9
 
 SOLVING FOR HEAD 
                                                   Max.-Head-Change                         Max.-Flux-Residual
  Residual-Control   Outer-Iter.   Inner-Iter.     Column Row Layer    Maximum-Head-Change  Column Row Layer    Maximum-Flux-Residual          L2-NORM 
          0                 1           2             4    7     1      -0.1390818942E-01       4    7    1        -0.7298039784E+00      0.1877018431E+01
          0                 2           2             4    7     1       0.1352882951E-02       4    7    1         0.7298008762E-01      0.1873942425E+00
          0                 3           1             4    7     1      -0.9212635734E-04       4    7    1        -0.5108611279E-02      0.1308958730E-01

    ------------------------------------------------
       NWT REQUIRED            3 OUTER ITERATIONS 
       AND A TOTAL OF          5 INNER ITERATIONS.
    ------------------------------------------------

 NO OUTPUT CONTROL FOR STRESS PERIOD   30   TIME STEP   10
 
 SOLVING FOR HEAD 
                                                   Max.-Head-Change                         Max.-Flux-Residual
  Residual-Control   Outer-Iter.   Inner-Iter.     Column Row Layer    Maximum-Head-Change  Column Row Layer    Maximum-Flux-Residual          L2-NORM 
          0                 1           2             4    7     1      -0.1376625126E-01       4    7    1        -0.7226412858E+00      0.1828399519E+01
          0                 2           2             4    7     1       0.1339076204E-02       4    7    1         0.7226381584E-01      0.1825713872E+00
          0                 3           1             4    7     1      -0.9118616934E-04       4    7    1        -0.5058472248E-02      0.1275523827E-01

    ------------------------------------------------
       NWT REQUIRED            3 OUTER ITERATIONS 
       AND A TOTAL OF          5 INNER ITERATIONS.
    ------------------------------------------------

 NO OUTPUT CONTROL FOR STRESS PERIOD   30   TIME STEP   11
 
 SOLVING FOR HEAD 
                                                   Max.-Head-Change                         Max.-Flux-Residual
  Residual-Control   Outer-Iter.   Inner-Iter.     Column Row Layer    Maximum-Head-Change  Column Row Layer    Maximum-Flux-Residual          L2-NORM 
          0                 1           2             4    7     1      -0.1362088534E-01       4    7    1        -0.7152744802E+00      0.1782429487E+01
          0                 2           2             4    7     1       0.1324749393E-02       4    7    1         0.7145942449E-01      0.1779752309E+00
          0                 3           1             4    7     1      -0.9021053383E-04       4    7    1        -0.5002162612E-02      0.1243641505E-01

    ------------------------------------------------
       NWT REQUIRED            3 OUTER ITERATIONS 
       AND A TOTAL OF          5 INNER ITERATIONS.
    ------------------------------------------------

 NO OUTPUT CONTROL FOR STRESS PERIOD   30   TIME STEP   12
 
 SOLVING FOR HEAD 
                                                   Max.-Head-Change                         Max.-Flux-Residual
  Residual-Control   Outer-Iter.   Inner-Iter.     Column Row Layer    Maximum-Head-Change  Column Row Layer    Maximum-Flux-Residual          L2-NORM 
          0                 1           2             4    7     1      -0.1348267670E-01       4    7    1        -0.7077254439E+00      0.1738883871E+01
          0                 2           2             4    7     1       0.1311495404E-02       4    7    1         0.7077245783E-01      0.1736827605E+00
          0                 3           1             4    7     1      -0.8930798753E-04       4    7    1        -0.4954075004E-02      0.1213906397E-01

    ------------------------------------------------
       NWT REQUIRED            3 OUTER ITERATIONS 
       AND A TOTAL OF          5 INNER ITERATIONS.
    ------------------------------------------------

 NO OUTPUT CONTROL FOR STRESS PERIOD   30   TIME STEP   13
 
 SOLVING FOR HEAD 
                                                   Max.-Head-Change                         Max.-Flux-Residual
  Residual-Control   Outer-Iter.   Inner-Iter.     Column Row Layer    Maximum-Head-Change  Column Row Layer    Maximum-Flux-Residual          L2-NORM 
          0                 1           2             4    7     1      -0.1334072487E-01       4    7    1        -0.7005272642E+00      0.1697821074E+01
          0                 2           2             4    7     1       0.1297687242E-02       4    7    1         0.7005263142E-01      0.1696024377E+00
          0                 3           1             4    7     1      -0.8836770426E-04       4    7    1        -0.4903687221E-02      0.1185581757E-01

    ------------------------------------------------
       NWT REQUIRED            3 OUTER ITERATIONS 
       AND A TOTAL OF          5 INNER ITERATIONS.
    ------------------------------------------------

 NO OUTPUT CONTROL FOR STRESS PERIOD   30   TIME STEP   14
 
 SOLVING FOR HEAD 
                                                   Max.-Head-Change                         Max.-Flux-Residual
  Residual-Control   Outer-Iter.   Inner-Iter.     Column Row Layer    Maximum-Head-Change  Column Row Layer    Maximum-Flux-Residual          L2-NORM 
          0                 1           2             4    7     1      -0.1319596729E-01       4    7    1        -0.6931597678E+00      0.1658804066E+01
          0                 2           2             4    7     1       0.1283606173E-02       4    7    1         0.6931587445E-01      0.1657232964E+00
          0                 3           1             4    7     1      -0.8740883646E-04       4    7    1        -0.4852114276E-02      0.1158638023E-01

    ------------------------------------------------
       NWT REQUIRED            3 OUTER ITERATIONS 
       AND A TOTAL OF          5 INNER ITERATIONS.
    ------------------------------------------------

 NO OUTPUT CONTROL FOR STRESS PERIOD   30   TIME STEP   15
 
 SOLVING FOR HEAD 
                                                   Max.-Head-Change                         Max.-Flux-Residual
  Residual-Control   Outer-Iter.   Inner-Iter.     Column Row Layer    Maximum-Head-Change  Column Row Layer    Maximum-Flux-Residual          L2-NORM 
          0                 1           2             4    7     1      -0.1304869367E-01       4    7    1        -0.6856394907E+00      0.1621664227E+01
          0                 2           2             4    7     1       0.1269280377E-02       4    7    1         0.6856384045E-01      0.1620283738E+00
          0                 3           1             4    7     1      -0.8643330415E-04       4    7    1        -0.4799471941E-02      0.1132932564E-01

    ------------------------------------------------
       NWT REQUIRED            3 OUTER ITERATIONS 
       AND A TOTAL OF          5 INNER ITERATIONS.
    ------------------------------------------------

 NO OUTPUT CONTROL FOR STRESS PERIOD   30   TIME STEP   16
 
 SOLVING FOR HEAD 
                                                   Max.-Head-Change                         Max.-Flux-Residual
  Residual-Control   Outer-Iter.   Inner-Iter.     Column Row Layer    Maximum-Head-Change  Column Row Layer    Maximum-Flux-Residual          L2-NORM 
          0                 1           2             4    7     1      -0.1289917134E-01       4    7    1        -0.6779814545E+00      0.1586253529E+01
          0                 2           2             4    7     1       0.1254735856E-02       4    7    1         0.6779803143E-01      0.1585047879E+00
          0                 3           1             4    7     1      -0.8544287680E-04       4    7    1        -0.4745865333E-02      0.1108443966E-01

    ------------------------------------------------
       NWT REQUIRED            3 OUTER ITERATIONS 
       AND A TOTAL OF          5 INNER ITERATIONS.
    ------------------------------------------------

 NO OUTPUT CONTROL FOR STRESS PERIOD   30   TIME STEP   17
 
 SOLVING FOR HEAD 
                                                   Max.-Head-Change                         Max.-Flux-Residual
  Residual-Control   Outer-Iter.   Inner-Iter.     Column Row Layer    Maximum-Head-Change  Column Row Layer    Maximum-Flux-Residual          L2-NORM 
          0                 1           2             4    7     1      -0.1274791376E-01       4    7    1        -0.6702141424E+00      0.1552451349E+01
          0                 2           2             4    7     1       0.1240022556E-02       4    7    1         0.6702129570E-01      0.1551395101E+00
          0                 3           1             4    7     1      -0.8444095636E-04       4    7    1        -0.4691493849E-02      0.1085006543E-01

    ------------------------------------------------
       NWT REQUIRED            3 OUTER ITERATIONS 
       AND A TOTAL OF          5 INNER ITERATIONS.
    ------------------------------------------------

 NO OUTPUT CONTROL FOR STRESS PERIOD   30   TIME STEP   18
 
 SOLVING FOR HEAD 
                                                   Max.-Head-Change                         Max.-Flux-Residual
  Residual-Control   Outer-Iter.   Inner-Iter.     Column Row Layer    Maximum-Head-Change  Column Row Layer    Maximum-Flux-Residual          L2-NORM 
          0                 1           2             4    7     1      -0.1259526992E-01       4    7    1        -0.6623568649E+00      0.1520145966E+01
          0                 2           2             4    7     1       0.1225174420E-02       4    7    1         0.6623556418E-01      0.1519220240E+00
          0                 3           1             4    7     1      -0.8342985382E-04       4    7    1        -0.4636492657E-02      0.1062631731E-01

    ------------------------------------------------
       NWT REQUIRED            3 OUTER ITERATIONS 
       AND A TOTAL OF          5 INNER ITERATIONS.
    ------------------------------------------------

 NO OUTPUT CONTROL FOR STRESS PERIOD   30   TIME STEP   19
 
 SOLVING FOR HEAD 
                                                   Max.-Head-Change                         Max.-Flux-Residual
  Residual-Control   Outer-Iter.   Inner-Iter.     Column Row Layer    Maximum-Head-Change  Column Row Layer    Maximum-Flux-Residual          L2-NORM 
          0                 1           2             4    7     1      -0.1244155596E-01       4    7    1        -0.6544277163E+00      0.1489222151E+01
          0                 2           2             4    7     1       0.1210222202E-02       4    7    1         0.6544264627E-01      0.1488410100E+00
          0                 3           1             4    7     1      -0.8241166375E-04       4    7    1        -0.4580988415E-02      0.1041139192E-01

    ------------------------------------------------
       NWT REQUIRED            3 OUTER ITERATIONS 
       AND A TOTAL OF          5 INNER ITERATIONS.
    ------------------------------------------------

 NO OUTPUT CONTROL FOR STRESS PERIOD   30   TIME STEP   20
 
 SOLVING FOR HEAD 
                                                   Max.-Head-Change                         Max.-Flux-Residual
  Residual-Control   Outer-Iter.   Inner-Iter.     Column Row Layer    Maximum-Head-Change  Column Row Layer    Maximum-Flux-Residual          L2-NORM 
          0                 1           2             4    7     1      -0.1228693195E-01       4    7    1        -0.6464357779E+00      0.1459583894E+01
          0                 2           2             4    7     1       0.1195181469E-02       4    7    1         0.6464344996E-01      0.1458871387E+00
          0                 3           1             4    7     1      -0.8138744573E-04       4    7    1        -0.4525044659E-02      0.1020575006E-01

    ------------------------------------------------
       NWT REQUIRED            3 OUTER ITERATIONS 
       AND A TOTAL OF          5 INNER ITERATIONS.
    ------------------------------------------------

 NO OUTPUT CONTROL FOR STRESS PERIOD   30   TIME STEP   21
 
 SOLVING FOR HEAD 
                                                   Max.-Head-Change                         Max.-Flux-Residual
  Residual-Control   Outer-Iter.   Inner-Iter.     Column Row Layer    Maximum-Head-Change  Column Row Layer    Maximum-Flux-Residual          L2-NORM 
          0                 1           2             4    7     1      -0.1213181103E-01       4    7    1        -0.6384039701E+00      0.1431155439E+01
          0                 2           2             4    7     1       0.1180092409E-02       4    7    1         0.6384026733E-01      0.1430524504E+00
          0                 3           1             4    7     1      -0.8035993689E-04       4    7    1        -0.4468821855E-02      0.1000780621E-01

    ------------------------------------------------
       NWT REQUIRED            3 OUTER ITERATIONS 
       AND A TOTAL OF          5 INNER ITERATIONS.
    ------------------------------------------------

 NO OUTPUT CONTROL FOR STRESS PERIOD   30   TIME STEP   22
 
 SOLVING FOR HEAD 
                                                   Max.-Head-Change                         Max.-Flux-Residual
  Residual-Control   Outer-Iter.   Inner-Iter.     Column Row Layer    Maximum-Head-Change  Column Row Layer    Maximum-Flux-Residual          L2-NORM 
          0                 1           2             4    7     1      -0.1197644612E-01       4    7    1        -0.6303464023E+00      0.1403855426E+01
          0                 2           2             4    7     1       0.1164979623E-02       4    7    1         0.6303450917E-01      0.1403304202E+00
          0                 3           1             4    7     1      -0.7933081275E-04       4    7    1        -0.4412418785E-02      0.9817900839E-02

    ------------------------------------------------
       NWT REQUIRED            3 OUTER ITERATIONS 
       AND A TOTAL OF          5 INNER ITERATIONS.
    ------------------------------------------------

 NO OUTPUT CONTROL FOR STRESS PERIOD   30   TIME STEP   23
 
 SOLVING FOR HEAD 
                                                   Max.-Head-Change                         Max.-Flux-Residual
  Residual-Control   Outer-Iter.   Inner-Iter.     Column Row Layer    Maximum-Head-Change  Column Row Layer    Maximum-Flux-Residual          L2-NORM 
          0                 1           2             4    7     1      -0.1182106225E-01       4    7    1        -0.6222761882E+00      0.1377604520E+01
          0                 2           2             4    7     1       0.1149799826E-02       4    7    1         0.6222748686E-01      0.1375829230E+00
          0                 3           1             4    7     1      -0.7829712484E-04       4    7    1        -0.4355927221E-02      0.9626410793E-02

    ------------------------------------------------
       NWT REQUIRED            3 OUTER ITERATIONS 
       AND A TOTAL OF          5 INNER ITERATIONS.
    ------------------------------------------------

 NO OUTPUT CONTROL FOR STRESS PERIOD   30   TIME STEP   24
 
 SOLVING FOR HEAD 
                                                   Max.-Head-Change                         Max.-Flux-Residual
  Residual-Control   Outer-Iter.   Inner-Iter.     Column Row Layer    Maximum-Head-Change  Column Row Layer    Maximum-Flux-Residual          L2-NORM 
          0                 1           2             4    7     1      -0.1166595763E-01       4    7    1        -0.6142011502E+00      0.1352454101E+01
          0                 2           2             4    7     1       0.1134777570E-02       4    7    1         0.6141998283E-01      0.1352041279E+00
          0                 3           1             4    7     1      -0.7727416486E-04       4    7    1        -0.4299401906E-02      0.9460366863E-02

    ------------------------------------------------
       NWT REQUIRED            3 OUTER ITERATIONS 
       AND A TOTAL OF          5 INNER ITERATIONS.
    ------------------------------------------------

 NO OUTPUT CONTROL FOR STRESS PERIOD   30   TIME STEP   25
 
 SOLVING FOR HEAD 
                                                   Max.-Head-Change                         Max.-Flux-Residual
  Residual-Control   Outer-Iter.   Inner-Iter.     Column Row Layer    Maximum-Head-Change  Column Row Layer    Maximum-Flux-Residual          L2-NORM 
          0                 1           2             4    7     1      -0.1151112278E-01       4    7    1        -0.6061336686E+00      0.1328281479E+01
          0                 2           2             4    7     1       0.1119716363E-02       4    7    1         0.6061323470E-01      0.1327906651E+00
          0                 3           1             4    7     1      -0.7624855248E-04       4    7    1        -0.4242929518E-02      0.9291877648E-02

    ------------------------------------------------
       NWT REQUIRED            3 OUTER ITERATIONS 
       AND A TOTAL OF          5 INNER ITERATIONS.
    ------------------------------------------------

 NO OUTPUT CONTROL FOR STRESS PERIOD   30   TIME STEP   26
 
 SOLVING FOR HEAD 
                                                   Max.-Head-Change                         Max.-Flux-Residual
  Residual-Control   Outer-Iter.   Inner-Iter.     Column Row Layer    Maximum-Head-Change  Column Row Layer    Maximum-Flux-Residual          L2-NORM 
          0                 1           2             4    7     1      -0.1135706348E-01       4    7    1        -0.5980982609E+00      0.1304982612E+01
          0                 2           2             4    7     1       0.1104730599E-02       4    7    1         0.5980969422E-01      0.1304653107E+00
          0                 3           1             4    7     1      -0.7522807732E-04       4    7    1        -0.4186681651E-02      0.9129495517E-02

    ------------------------------------------------
       NWT REQUIRED            3 OUTER ITERATIONS 
       AND A TOTAL OF          5 INNER ITERATIONS.
    ------------------------------------------------

 NO OUTPUT CONTROL FOR STRESS PERIOD   30   TIME STEP   27
 
 SOLVING FOR HEAD 
                                                   Max.-Head-Change                         Max.-Flux-Residual
  Residual-Control   Outer-Iter.   Inner-Iter.     Column Row Layer    Maximum-Head-Change  Column Row Layer    Maximum-Flux-Residual          L2-NORM 
          0                 1           2             4    7     1      -0.1120365863E-01       4    7    1        -0.5900884495E+00      0.1282508641E+01
          0                 2           2             4    7     1       0.1089808501E-02       4    7    1         0.5900871369E-01      0.1282227993E+00
          0                 3           1             4    7     1      -0.7421193779E-04       4    7    1        -0.4130612976E-02      0.8972992685E-02

    ------------------------------------------------
       NWT REQUIRED            3 OUTER ITERATIONS 
       AND A TOTAL OF          5 INNER ITERATIONS.
    ------------------------------------------------

 NO OUTPUT CONTROL FOR STRESS PERIOD   30   TIME STEP   28
 
 SOLVING FOR HEAD 
                                                   Max.-Head-Change                         Max.-Flux-Residual
  Residual-Control   Outer-Iter.   Inner-Iter.     Column Row Layer    Maximum-Head-Change  Column Row Layer    Maximum-Flux-Residual          L2-NORM 
          0                 1           2             4    7     1      -0.1105118141E-01       4    7    1        -0.5821198838E+00      0.1260803482E+01
          0                 2           2             4    7     1       0.1074976640E-02       4    7    1         0.5821185797E-01      0.1260547509E+00
          0                 3           1             4    7     1      -0.7320194336E-04       4    7    1        -0.4074833062E-02      0.8821545205E-02

    ------------------------------------------------
       NWT REQUIRED            3 OUTER ITERATIONS 
       AND A TOTAL OF          5 INNER ITERATIONS.
    ------------------------------------------------

 NO OUTPUT CONTROL FOR STRESS PERIOD   30   TIME STEP   29
 
 SOLVING FOR HEAD 
                                                   Max.-Head-Change                         Max.-Flux-Residual
  Residual-Control   Outer-Iter.   Inner-Iter.     Column Row Layer    Maximum-Head-Change  Column Row Layer    Maximum-Flux-Residual          L2-NORM 
          0                 1           2             4    7     1      -0.1089975701E-01       4    7    1        -0.5741994176E+00      0.1239834662E+01
          0                 2           2             4    7     1       0.1060247191E-02       4    7    1         0.5741981240E-01      0.1239607891E+00
          0                 3           1             4    7     1      -0.7219892215E-04       4    7    1        -0.4019389821E-02      0.8675166607E-02

    ------------------------------------------------
       NWT REQUIRED            3 OUTER ITERATIONS 
       AND A TOTAL OF          5 INNER ITERATIONS.
    ------------------------------------------------

 NO OUTPUT CONTROL FOR STRESS PERIOD   30   TIME STEP   30



 STREAM LISTING     PERIOD     30   STEP       30

 LAYER ROW COL. STREAM  RCH.  FLOW INTO     FLOW TO   FLOW OUT OF   OVRLND.     DIRECT     STREAM       STREAM     STREAM     STREAM   STREAMBED  STREAMBED
                SEG.NO.  NO.  STRM. RCH.    AQUIFER    STRM. RCH.    RUNOFF     PRECIP       ET          HEAD       DEPTH      WIDTH   CONDCTNC.   GRADIENT

   1    1    1     1     1    3.7124E+01  2.9395E-01   3.6830E+01  0.000E+00  0.000E+00  0.000E+00  1.09436E+03  1.309E+00  1.516E+01  6.821E-02  1.436E+00
   1    2    2     1     2    3.6830E+01  4.5517E-01   3.6375E+01  0.000E+00  0.000E+00  0.000E+00  1.08936E+03  1.306E+00  1.510E+01  1.057E-01  1.435E+00
   1    3    3     1     3    3.6375E+01  3.8813E-01   3.5987E+01  0.000E+00  0.000E+00  0.000E+00  1.08372E+03  1.303E+00  1.503E+01  9.020E-02  1.434E+00
   1    3    4     1     4    3.5987E+01  3.5736E-01   3.5629E+01  0.000E+00  0.000E+00  0.000E+00  1.07871E+03  1.300E+00  1.497E+01  8.311E-02  1.433E+00
   1    4    5     2     1    3.3629E+01  3.4618E-01   3.3283E+01  0.000E+00  0.000E+00  0.000E+00  1.07337E+03  1.438E+00  1.200E+01  7.800E-02  1.479E+00
   1    5    6     2     2    3.3283E+01  2.6582E-01   3.3017E+01  0.000E+00  0.000E+00  0.000E+00  1.06794E+03  1.430E+00  1.200E+01  6.000E-02  1.477E+00
   1    6    6     2     3    3.3017E+01  2.6541E-01   3.2752E+01  0.000E+00  0.000E+00  0.000E+00  1.06322E+03  1.423E+00  1.200E+01  6.000E-02  1.474E+00
   1    7    6     2     4    3.2752E+01  2.6499E-01   3.2487E+01  0.000E+00  0.000E+00  0.000E+00  1.05849E+03  1.417E+00  1.200E+01  6.000E-02  1.472E+00
   1    8    6     2     5    3.2487E+01  2.6458E-01   3.2222E+01  0.000E+00  0.000E+00  0.000E+00  1.05377E+03  1.410E+00  1.200E+01  6.000E-02  1.470E+00
   1    3    5     3     1    2.0000E+00  2.8252E-01   1.7175E+00  0.000E+00  0.000E+00  0.000E+00  1.07555E+03  1.909E+00  9.636E+00  7.227E-02  1.955E+00
   1    3    6     3     2    1.7175E+00  2.4905E-01   1.4684E+00  0.000E+00  0.000E+00  0.000E+00  1.07264E+03  1.727E+00  8.909E+00  6.682E-02  1.864E+00
   1    3    7     3     3    1.4684E+00  1.9718E-01   1.2712E+00  0.000E+00  0.000E+00  0.000E+00  1.06987E+03  1.555E+00  8.218E+00  5.547E-02  1.777E+00
   1    4    8     3     4    1.2712E+00  2.2567E-01   1.0456E+00  0.000E+00  0.000E+00  0.000E+00  1.06682E+03  1.364E+00  7.455E+00  6.709E-02  1.682E+00
   1    5    8     3     5    1.0456E+00  1.5790E-01   8.8768E-01  0.000E+00  0.000E+00  0.000E+00  1.06362E+03  1.164E+00  6.655E+00  4.991E-02  1.582E+00
   1    6    8     3     6    8.8768E-01  5.5980E-02   8.3170E-01  0.000E+00  0.000E+00  0.000E+00  1.06158E+03  1.036E+00  6.145E+00  1.844E-02  1.518E+00
   1    5   10     4     1    1.0000E+01  9.0919E-02   9.9091E+00  0.000E+00  0.000E+00  0.000E+00  1.07836E+03  6.368E-01  1.000E+01  2.500E-02  1.212E+00
   1    5    9     4     2    9.9091E+00  1.8158E-01   9.7275E+00  0.000E+00  0.000E+00  0.000E+00  1.07154E+03  6.315E-01  1.000E+01  5.000E-02  1.211E+00
   1    6    8     4     3    9.7275E+00  1.2689E-01   9.6006E+00  0.000E+00  0.000E+00  0.000E+00  1.06381E+03  6.256E-01  1.000E+01  3.500E-02  1.209E+00
   1    6    8     5     1    1.0432E+01  2.2686E-01   1.0205E+01  0.000E+00  0.000E+00  0.000E+00  1.05868E+03  6.790E-01  1.542E+01  6.166E-02  1.226E+00
   1    7    7     5     2    1.0205E+01  2.7894E-01   9.9265E+00  0.000E+00  0.000E+00  0.000E+00  1.05417E+03  6.732E-01  1.519E+01  7.594E-02  1.224E+00
   1    8    7     5     3    9.9265E+00  1.9221E-01   9.7343E+00  0.000E+00  0.000E+00  0.000E+00  1.04992E+03  6.676E-01  1.497E+01  5.241E-02  1.223E+00
   1    8    6     5     4    9.7343E+00  1.3577E-01   9.5985E+00  0.000E+00  0.000E+00  0.000E+00  1.04691E+03  6.637E-01  1.482E+01  3.706E-02  1.221E+00
   1    9    6     6     1    4.1821E+01  2.7956E-01   4.1541E+01  0.000E+00  0.000E+00  0.000E+00  1.04439E+03  1.659E+00  1.200E+01  6.000E-02  1.553E+00
   1   10    7     6     2    4.1541E+01  2.7916E-01   4.1262E+01  0.000E+00  0.000E+00  0.000E+00  1.03983E+03  1.653E+00  1.200E+01  6.000E-02  1.551E+00
   1   11    7     6     3    4.1262E+01  2.7876E-01   4.0983E+01  0.000E+00  0.000E+00  0.000E+00  1.03528E+03  1.646E+00  1.200E+01  6.000E-02  1.549E+00
   1   12    7     6     4    4.0983E+01  2.7836E-01   4.0705E+01  0.000E+00  0.000E+00  0.000E+00  1.03073E+03  1.639E+00  1.200E+01  6.000E-02  1.546E+00
   1   13    7     6     5    4.0705E+01  2.4218E-02   4.0681E+01  0.000E+00  0.000E+00  0.000E+00  1.02754E+03  1.636E+00  1.200E+01  2.400E-02  3.364E-01
   1   14    9     7     1    1.5000E+02  1.3867E+00   1.4861E+02  0.000E+00  0.000E+00  0.000E+00  1.03987E+03  2.288E+00  5.529E+01  5.593E-01  8.264E-01
   1   13    8     7     2    1.4861E+02  2.0053E+00   1.4661E+02  0.000E+00  0.000E+00  0.000E+00  1.03478E+03  2.279E+00  5.525E+01  6.147E-01  1.087E+00
   1   13    7     7     3    1.4661E+02  1.7601E+00   1.4485E+02  0.000E+00  0.000E+00  0.000E+00  1.02969E+03  2.269E+00  5.521E+01  5.584E-01  1.051E+00
   1   13    6     8     1    1.8553E+02  1.2740E+00   1.8425E+02  0.000E+00  0.000E+00  0.000E+00  1.02492E+03  3.047E+00  4.418E+01  4.502E-01  9.433E-01
   1   13    5     8     2    1.8425E+02  4.7492E-01   1.8378E+02  0.000E+00  0.000E+00  0.000E+00  1.01867E+03  3.041E+00  4.410E+01  4.494E-01  3.523E-01
   1   13    4     8     3    1.8378E+02 -1.4931E+00   1.8527E+02  0.000E+00  0.000E+00  0.000E+00  1.01242E+03  3.044E+00  4.414E+01  4.498E+00 -1.106E-01
   1   13    3     8     4    1.8527E+02 -3.1705E+00   1.8844E+02  0.000E+00  0.000E+00  0.000E+00  1.00618E+03  3.059E+00  4.435E+01  4.520E+00 -2.338E-01
   1   13    2     8     5    1.8844E+02 -2.4059E+00   1.9085E+02  0.000E+00  0.000E+00  0.000E+00  9.99951E+02  3.076E+00  4.460E+01  4.545E+00 -1.765E-01
   1   13    1     8     6    1.9085E+02 -1.8886E+00   1.9274E+02  0.000E+00  0.000E+00  0.000E+00  9.94964E+02  3.089E+00  4.479E+01  2.738E+00 -2.299E-01
   1    8    6     9     1    0.0000E+00  0.0000E+00   0.0000E+00  0.000E+00  0.000E+00  0.000E+00  1.07875E+03  0.000E+00  4.000E+00  0.000E+00  1.000E+00
   1    8    5     9     2    0.0000E+00  0.0000E+00   0.0000E+00  0.000E+00  0.000E+00  0.000E+00  1.07825E+03  0.000E+00  4.000E+00  0.000E+00  1.000E+00





UNSATURATED ZONE PACKAGE VOLUMETRIC BUDGET FOR  TIME STEP    30 STRESS PERIOD   30
  ------------------------------------------------------------------------------



     CUMULATIVE VOLUMES      L**3       RATES FOR THIS TIME STEP      L**3/T
     ------------------                 ------------------------

           IN:                                      IN:
           ---                                      ---
        INFILTRATION =   892136861.3806          INFILTRATION =           8.3175

          OUT:                                     OUT:
          ----                                     ----
              UZF ET =   891329942.5160                UZF ET =           8.3175
        UZF RECHARGE =       73224.0000          UZF RECHARGE =       0.0000E+00

            IN - OUT =      733694.8646              IN - OUT =       0.0000E+00

          STORAGE:                                 STORAGE:
          --------                                 --------
      STORAGE CHANGE =      733694.9096        STORAGE CHANGE =       1.6599E-16

 PERCENT DISCREPANCY IS DIFFERENCE BETWEEN IN-OUT MINUS CHANGE IN STORAGE
 DIVIDED BY THE AVERAGE OF IN AND OUT TIMES 100

 PERCENT DISCREPANCY =           0.00     PERCENT DISCREPANCY =           0.00






1
  VOLUMETRIC BUDGET FOR AGRICULTURAL FIELDS AT  END OF TIME STEP   30, STRESS PERIOD  30
  ------------------------------------------------------------------------------

     CUMULATIVE VOLUMES      L**3       RATES FOR THIS TIME STEP      L**3/T
     ------------------                 ------------------------

           IN:                                      IN:
           ---                                      ---
               AG WELLS  =   827422400.0000                 AG WELLS  =           7.4700
      DIVERSION SEGMENTS =           0.0000        DIVERSION SEGMENTS =           0.0000
       IRRIGATION PONDS  =           0.0000         IRRIGATION PONDS  =           0.0000
           GW IRRIGATION =           0.0000             GW IRRIGATION =           0.0000
           SW IRRIGATION =           0.0000             SW IRRIGATION =           0.0000
        SYSTEM LOSSES GW =           0.0000          SYSTEM LOSSES GW =           0.0000
        SYSTEM LOSSES SW =           0.0000          SYSTEM LOSSES SW =           0.0000

                TOTAL IN =   827422400.0000                  TOTAL IN =           7.4700

          OUT:                                     OUT:
          ----                                     ----
               AG WELLS  =           0.0000                 AG WELLS  =           0.0000
      DIVERSION SEGMENTS =           0.0000        DIVERSION SEGMENTS =           0.0000
       IRRIGATION PONDS  =           0.0000         IRRIGATION PONDS  =           0.0000
           GW IRRIGATION =   827422400.0000             GW IRRIGATION =           7.4700
           SW IRRIGATION =           0.0000             SW IRRIGATION =           0.0000
        SYSTEM LOSSES GW =           0.0000          SYSTEM LOSSES GW =           0.0000
        SYSTEM LOSSES SW =           0.0000          SYSTEM LOSSES SW =           0.0000

               TOTAL OUT =   827422400.0000                 TOTAL OUT =           7.4700

                IN - OUT =           0.0000                  IN - OUT =           0.0000

     PERCENT DISCREPANCY =           0.00         PERCENT DISCREPANCY =           0.00



1
  VOLUMETRIC BUDGET FOR ENTIRE MODEL AT END OF TIME STEP   30, STRESS PERIOD  30
  ------------------------------------------------------------------------------

     CUMULATIVE VOLUMES      L**3       RATES FOR THIS TIME STEP      L**3/T
     ------------------                 ------------------------

           IN:                                      IN:
           ---                                      ---
             STORAGE     =  1137597184.0000               STORAGE     =           5.0487
       CONSTANT HEAD     =           0.0000         CONSTANT HEAD     =           0.0000
     HEAD DEP BOUNDS     =    22008774.0000       HEAD DEP BOUNDS     =           0.2892
      STREAM LEAKAGE     =   911148736.0000        STREAM LEAKAGE     =          13.3441
        UZF RECHARGE     =       73223.9531          UZF RECHARGE     =           0.0000
               GW ET     =           0.0000                 GW ET     =           0.0000
     SURFACE LEAKAGE     =           0.0000       SURFACE LEAKAGE     =           0.0000
           AG WELLS      =           0.0000             AG WELLS      =           0.0000

                TOTAL IN =  2070828032.0000                  TOTAL IN =          18.6819

          OUT:                                     OUT:
          ----                                     ----
             STORAGE     =   465002560.0000               STORAGE     =           1.9621
       CONSTANT HEAD     =           0.0000         CONSTANT HEAD     =           0.0000
     HEAD DEP BOUNDS     =    22050120.0000       HEAD DEP BOUNDS     =           0.2908
      STREAM LEAKAGE     =   756357120.0000        STREAM LEAKAGE     =           8.9581
        UZF RECHARGE     =           0.0000          UZF RECHARGE     =           0.0000
               GW ET     =           0.0000                 GW ET     =           0.0000
     SURFACE LEAKAGE     =           0.0000       SURFACE LEAKAGE     =           0.0000
           AG WELLS      =   827422400.0000             AG WELLS      =           7.4700

               TOTAL OUT =  2070832128.0000                 TOTAL OUT =          18.6810

                IN - OUT =       -4096.0000                  IN - OUT =       8.8692E-04

     PERCENT DISCREPANCY =          -0.00         PERCENT DISCREPANCY =           0.00






         TIME SUMMARY AT END OF TIME STEP   30 IN STRESS PERIOD   30
                    SECONDS     MINUTES      HOURS       DAYS        YEARS
                    -----------------------------------------------------------
   TIME STEP LENGTH  87667.      1461.1      24.352      1.0147     2.77799E-03
 STRESS PERIOD TIME 2.63000E+06  43833.      730.56      30.440     8.33397E-02
         TOTAL TIME 7.63565E+07 1.27261E+06  21210.      883.76      2.4196    
1
1
                            STRESS PERIOD NO.   31, LENGTH =   2630000.    
                            -----------------------------------------------

                              NUMBER OF TIME STEPS =    30

                               MULTIPLIER FOR DELT =     1.000

                            INITIAL TIME STEP SIZE =   87666.66    

 REUSING NON-PARAMETER GHB CELLS FROM LAST STRESS PERIOD

      2 GHB CELLS

 REUSING STREAM SEGMENT DATA FROM LAST STRESS PERIOD



            AREAL INFILTRATION RATE
 READING ON UNIT   19 WITH FORMAT: (FREE)              

            1           2           3           4           5           6           7           8           9          10
 ........................................................................................................................
   1   1.0000E-10  2.0000E-10   0.000       0.000       0.000       0.000       0.000       0.000       0.000       0.000    
   2   2.0000E-10  1.0000E-10  2.0000E-10   0.000       0.000      8.0000E-10  8.0000E-10  5.0000E-10   0.000       0.000    
   3    0.000      5.0000E-10  1.0000E-10  1.0000E-10  8.0000E-10  8.0000E-10  5.0000E-10  5.0000E-10   0.000       0.000    
   4   8.0000E-10  5.0000E-10  1.0000E-10  1.0000E-10  1.0000E-10  1.0000E-10  1.0000E-10  1.0000E-10  2.0000E-10   0.000    
   5   8.0000E-10  5.0000E-10  1.0000E-10  1.0000E-10  1.0000E-10  1.0000E-10  1.0000E-10  1.0000E-10  1.0000E-10  1.0000E-10
   6   8.0000E-10  5.0000E-10  5.0000E-10  2.0000E-10  2.0000E-10  1.0000E-10  1.0000E-10  1.0000E-10  1.0000E-10  5.0000E-10
   7   8.0000E-10  5.0000E-10  5.0000E-10  2.0000E-10  2.0000E-10  1.0000E-10  1.0000E-10  2.0000E-10  2.0000E-10   0.000    
   8    0.000      5.0000E-10  5.0000E-10  2.0000E-10  2.0000E-10  1.0000E-10  1.0000E-10  2.0000E-10  5.0000E-10   0.000    
   9    0.000      5.0000E-10  5.0000E-10  2.0000E-10  2.0000E-10  1.0000E-10  1.0000E-10  2.0000E-10  5.0000E-10   0.000    
  10    0.000      5.0000E-10  5.0000E-10  2.0000E-10  2.0000E-10  1.0000E-10  1.0000E-10  2.0000E-10  5.0000E-10  8.0000E-10
  11    0.000      1.0000E-10  1.0000E-10  1.0000E-10  1.0000E-10  1.0000E-10  1.0000E-10  2.0000E-10  5.0000E-10   0.000    
  12   1.0000E-10  1.0000E-10  1.0000E-10  1.0000E-10  1.0000E-10  1.0000E-10  1.0000E-10  1.0000E-10  2.0000E-10   0.000    
  13   1.0000E-10  1.0000E-10  2.0000E-10  2.0000E-10  2.0000E-10  2.0000E-10  2.0000E-10  1.0000E-10  1.0000E-10   0.000    
  14    0.000      2.0000E-10  5.0000E-10  5.0000E-10  5.0000E-10  5.0000E-10  5.0000E-10  2.0000E-10  1.0000E-10   0.000    
  15    0.000       0.000      8.0000E-10  8.0000E-10  8.0000E-10  8.0000E-10   0.000       0.000       0.000       0.000    

                  ET RATE =  1.500000E-07

 USING ET EXTINCTION DEPTH FROM PREVIOUS STRESS PERIOD. CURRENT PERIOD IS:      31

 USING EXTINCTION WATER CONTENT FROM PREVIOUS STRESS PERIOD. CURRENT PERIOD IS:      31

 USING AIR ENTRY PRESSURE FROM PREVIOUS STRESS PERIOD. CURRENT PERIOD IS:      31

 USING ROOT PRESSURE HEAD FROM PREVIOUS STRESS PERIOD. CURRENT PERIOD IS:      31

 USING ROOT ACTIVITY FROM PREVIOUS STRESS PERIOD. CURRENT PERIOD IS:      31

 PROCESSING AG STRESS PERIOD DATA

 READING AG STRESS PERIOD DATA

 READING IRRIGATION SEGMENT

 READING IRRIGATION WELL

 READING SUPPLEMENTAL WELL

 NO IRRPOND OR REUSING IRRPOND DATA FROM LAST STRESS PERIOD

 END PROCESSING AG STRESS PERIOD DATA OPTIONS
 
 SOLVING FOR HEAD 
                                                   Max.-Head-Change                         Max.-Flux-Residual
  Residual-Control   Outer-Iter.   Inner-Iter.     Column Row Layer    Maximum-Head-Change  Column Row Layer    Maximum-Flux-Residual          L2-NORM 
          0                 1           2             4    7     1      -0.5863553434E-01       4    7    1        -0.3066326353E+01      0.7239828275E+01
          0                 2           2             4    7     1       0.5703610397E-02       4    7    1         0.3066308418E+00      0.7239754809E+00
          0                 3           2             4    7     1      -0.3883949991E-03       4    7    1        -0.2146418518E-01      0.5067835163E-01
          0                 4           1             4    7     1       0.1545459898E-04       4    7    1         0.8778863125E-03      0.2072738500E-02

    ------------------------------------------------
       NWT REQUIRED            4 OUTER ITERATIONS 
       AND A TOTAL OF          7 INNER ITERATIONS.
    ------------------------------------------------

 NO OUTPUT CONTROL FOR STRESS PERIOD   31   TIME STEP    1
 
 SOLVING FOR HEAD 
                                                   Max.-Head-Change                         Max.-Flux-Residual
  Residual-Control   Outer-Iter.   Inner-Iter.     Column Row Layer    Maximum-Head-Change  Column Row Layer    Maximum-Flux-Residual          L2-NORM 
          0                 1           2             4    7     1      -0.5823606666E-01       4    7    1        -0.3046592388E+01      0.7110826559E+01
          0                 2           2             4    7     1       0.5664750618E-02       4    7    1         0.3046572743E+00      0.7110682241E+00
          0                 3           2             4    7     1      -0.3857488163E-03       4    7    1        -0.2132603700E-01      0.4977417186E-01
          0                 4           1             4    7     1       0.1534930477E-04       4    7    1         0.8722360399E-03      0.2035719082E-02

    ------------------------------------------------
       NWT REQUIRED            4 OUTER ITERATIONS 
       AND A TOTAL OF          7 INNER ITERATIONS.
    ------------------------------------------------

 NO OUTPUT CONTROL FOR STRESS PERIOD   31   TIME STEP    2
 
 SOLVING FOR HEAD 
                                                   Max.-Head-Change                         Max.-Flux-Residual
  Residual-Control   Outer-Iter.   Inner-Iter.     Column Row Layer    Maximum-Head-Change  Column Row Layer    Maximum-Flux-Residual          L2-NORM 
          0                 1           2             4    7     1      -0.5781894001E-01       4    7    1        -0.3025843069E+01      0.6987041002E+01
          0                 2           2             4    7     1       0.5624173392E-02       4    7    1         0.3025821908E+00      0.6986909887E+00
          0                 3           2             4    7     1      -0.3829856789E-03       4    7    1        -0.2118078252E-01      0.4890785856E-01
          0                 4           1             4    7     1       0.1523935722E-04       4    7    1         0.8662951316E-03      0.2000411857E-02

    ------------------------------------------------
       NWT REQUIRED            4 OUTER ITERATIONS 
       AND A TOTAL OF          7 INNER ITERATIONS.
    ------------------------------------------------

 NO OUTPUT CONTROL FOR STRESS PERIOD   31   TIME STEP    3
 
 SOLVING FOR HEAD 
                                                   Max.-Head-Change                         Max.-Flux-Residual
  Residual-Control   Outer-Iter.   Inner-Iter.     Column Row Layer    Maximum-Head-Change  Column Row Layer    Maximum-Flux-Residual          L2-NORM 
          0                 1           2             4    7     1      -0.5738569684E-01       4    7    1        -0.3004163531E+01      0.6868896539E+01
          0                 2           2             4    7     1       0.5582042158E-02       4    7    1         0.3004141036E+00      0.6876077854E+00
          0                 3           2             4    7     1      -0.3801167082E-03       4    7    1        -0.2102901762E-01      0.4813211093E-01
          0                 4           1             4    7     1       0.1512519819E-04       4    7    1         0.8600879364E-03      0.1968586823E-02

    ------------------------------------------------
       NWT REQUIRED            4 OUTER ITERATIONS 
       AND A TOTAL OF          7 INNER ITERATIONS.
    ------------------------------------------------

 NO OUTPUT CONTROL FOR STRESS PERIOD   31   TIME STEP    4
 
 SOLVING FOR HEAD 
                                                   Max.-Head-Change                         Max.-Flux-Residual
  Residual-Control   Outer-Iter.   Inner-Iter.     Column Row Layer    Maximum-Head-Change  Column Row Layer    Maximum-Flux-Residual          L2-NORM 
          0                 1           2             4    7     1      -0.5693812812E-01       4    7    1        -0.2981654956E+01      0.6755406320E+01
          0                 2           2             4    7     1       0.5538491757E-02       4    7    1         0.2981631291E+00      0.6755328830E+00
          0                 3           2             4    7     1      -0.3771511020E-03       4    7    1        -0.2087145043E-01      0.4728693121E-01
          0                 4           1             4    7     1       0.1500719344E-04       4    7    1         0.8536433888E-03      0.1934015553E-02

    ------------------------------------------------
       NWT REQUIRED            4 OUTER ITERATIONS 
       AND A TOTAL OF          7 INNER ITERATIONS.
    ------------------------------------------------

 NO OUTPUT CONTROL FOR STRESS PERIOD   31   TIME STEP    5
 
 SOLVING FOR HEAD 
                                                   Max.-Head-Change                         Max.-Flux-Residual
  Residual-Control   Outer-Iter.   Inner-Iter.     Column Row Layer    Maximum-Head-Change  Column Row Layer    Maximum-Flux-Residual          L2-NORM 
          0                 1           2             4    7     1      -0.5647773140E-01       4    7    1        -0.2958397693E+01      0.6646607953E+01
          0                 2           2             4    7     1       0.5493706297E-02       4    7    1         0.2958373013E+00      0.6646538308E+00
          0                 3           2             4    7     1      -0.3741013933E-03       4    7    1        -0.2070864338E-01      0.4652545967E-01
          0                 4           1             4    7     1       0.1488584296E-04       4    7    1         0.8469845989E-03      0.1902869743E-02

    ------------------------------------------------
       NWT REQUIRED            4 OUTER ITERATIONS 
       AND A TOTAL OF          7 INNER ITERATIONS.
    ------------------------------------------------

 NO OUTPUT CONTROL FOR STRESS PERIOD   31   TIME STEP    6
 
 SOLVING FOR HEAD 
                                                   Max.-Head-Change                         Max.-Flux-Residual
  Residual-Control   Outer-Iter.   Inner-Iter.     Column Row Layer    Maximum-Head-Change  Column Row Layer    Maximum-Flux-Residual          L2-NORM 
          0                 1           2             4    7     1      -0.5600599512E-01       4    7    1        -0.2934474646E+01      0.6542459665E+01
          0                 2           2             4    7     1       0.5447817936E-02       4    7    1         0.2934449093E+00      0.6542395344E+00
          0                 3           2             4    7     1      -0.3709765783E-03       4    7    1        -0.2054117670E-01      0.4579649088E-01
          0                 4           1             4    7     1       0.1476150319E-04       4    7    1         0.8401351774E-03      0.1873056977E-02

    ------------------------------------------------
       NWT REQUIRED            4 OUTER ITERATIONS 
       AND A TOTAL OF          7 INNER ITERATIONS.
    ------------------------------------------------

 NO OUTPUT CONTROL FOR STRESS PERIOD   31   TIME STEP    7
 
 SOLVING FOR HEAD 
                                                   Max.-Head-Change                         Max.-Flux-Residual
  Residual-Control   Outer-Iter.   Inner-Iter.     Column Row Layer    Maximum-Head-Change  Column Row Layer    Maximum-Flux-Residual          L2-NORM 
          0                 1           2             4    7     1      -0.5552432572E-01       4    7    1        -0.2909963662E+01      0.6442643579E+01
          0                 2           2             4    7     1       0.5400963547E-02       4    7    1         0.2909937367E+00      0.6442583955E+00
          0                 3           2             4    7     1      -0.3677859792E-03       4    7    1        -0.2036959525E-01      0.4509786876E-01
          0                 4           1             4    7     1       0.1463454669E-04       4    7    1         0.8331175047E-03      0.1844497303E-02

    ------------------------------------------------
       NWT REQUIRED            4 OUTER ITERATIONS 
       AND A TOTAL OF          7 INNER ITERATIONS.
    ------------------------------------------------

 NO OUTPUT CONTROL FOR STRESS PERIOD   31   TIME STEP    8
 
 SOLVING FOR HEAD 
                                                   Max.-Head-Change                         Max.-Flux-Residual
  Residual-Control   Outer-Iter.   Inner-Iter.     Column Row Layer    Maximum-Head-Change  Column Row Layer    Maximum-Flux-Residual          L2-NORM 
          0                 1           2             4    7     1      -0.5503404595E-01       4    7    1        -0.2884937661E+01      0.6346881090E+01
          0                 2           2             4    7     1       0.5353271782E-02       4    7    1         0.2884910744E+00      0.6346825526E+00
          0                 3           2             4    7     1      -0.3645383555E-03       4    7    1        -0.2019440941E-01      0.4442760343E-01
          0                 4           1             4    7     1       0.1450532034E-04       4    7    1         0.8259523734E-03      0.1817092819E-02

    ------------------------------------------------
       NWT REQUIRED            4 OUTER ITERATIONS 
       AND A TOTAL OF          7 INNER ITERATIONS.
    ------------------------------------------------

 NO OUTPUT CONTROL FOR STRESS PERIOD   31   TIME STEP    9
 
 SOLVING FOR HEAD 
                                                   Max.-Head-Change                         Max.-Flux-Residual
  Residual-Control   Outer-Iter.   Inner-Iter.     Column Row Layer    Maximum-Head-Change  Column Row Layer    Maximum-Flux-Residual          L2-NORM 
          0                 1           2             4    7     1      -0.5453638817E-01       4    7    1        -0.2859465226E+01      0.6254912964E+01
          0                 2           2             4    7     1       0.5304862503E-02       4    7    1         0.2859437798E+00      0.6254861148E+00
          0                 3           2             4    7     1      -0.3612418706E-03       4    7    1        -0.2001609920E-01      0.4378388854E-01
          0                 4           1             4    7     1       0.1437415051E-04       4    7    1         0.8186594766E-03      0.1790750102E-02

    ------------------------------------------------
       NWT REQUIRED            4 OUTER ITERATIONS 
       AND A TOTAL OF          7 INNER ITERATIONS.
    ------------------------------------------------

 NO OUTPUT CONTROL FOR STRESS PERIOD   31   TIME STEP   10
 
 SOLVING FOR HEAD 
                                                   Max.-Head-Change                         Max.-Flux-Residual
  Residual-Control   Outer-Iter.   Inner-Iter.     Column Row Layer    Maximum-Head-Change  Column Row Layer    Maximum-Flux-Residual          L2-NORM 
          0                 1           2             4    7     1      -0.5403237216E-01       4    7    1        -0.2833602958E+01      0.6166495910E+01
          0                 2           2             4    7     1       0.5255834891E-02       4    7    1         0.2833575119E+00      0.6166447277E+00
          0                 3           2             4    7     1      -0.3579032777E-03       4    7    1        -0.1983506075E-01      0.4316499958E-01
          0                 4           1             4    7     1       0.1424130466E-04       4    7    1         0.8112549963E-03      0.1765798886E-02

    ------------------------------------------------
       NWT REQUIRED            4 OUTER ITERATIONS 
       AND A TOTAL OF          7 INNER ITERATIONS.
    ------------------------------------------------

 NO OUTPUT CONTROL FOR STRESS PERIOD   31   TIME STEP   11
 
 SOLVING FOR HEAD 
                                                   Max.-Head-Change                         Max.-Flux-Residual
  Residual-Control   Outer-Iter.   Inner-Iter.     Column Row Layer    Maximum-Head-Change  Column Row Layer    Maximum-Flux-Residual          L2-NORM 
          0                 1           2             4    7     1      -0.5352321327E-01       4    7    1        -0.2807418330E+01      0.6081413867E+01
          0                 2           2             4    7     1       0.5206307153E-02       4    7    1         0.2807390173E+00      0.6081367927E+00
          0                 3           2             4    7     1      -0.3545306268E-03       4    7    1        -0.1965176634E-01      0.4256948274E-01
          0                 4           1             4    7     1       0.1410710364E-04       4    7    1         0.8037582463E-03      0.1741071034E-02

    ------------------------------------------------
       NWT REQUIRED            4 OUTER ITERATIONS 
       AND A TOTAL OF          7 INNER ITERATIONS.
    ------------------------------------------------

 NO OUTPUT CONTROL FOR STRESS PERIOD   31   TIME STEP   12
 
 SOLVING FOR HEAD 
                                                   Max.-Head-Change                         Max.-Flux-Residual
  Residual-Control   Outer-Iter.   Inner-Iter.     Column Row Layer    Maximum-Head-Change  Column Row Layer    Maximum-Flux-Residual          L2-NORM 
          0                 1           2             4    7     1      -0.5300977730E-01       4    7    1        -0.2780959761E+01      0.5999469152E+01
          0                 2           2             4    7     1       0.5156363498E-02       4    7    1         0.2780931370E+00      0.5999425318E+00
          0                 3           2             4    7     1      -0.3511296523E-03       4    7    1        -0.1946655487E-01      0.4199587203E-01
          0                 4           1             4    7     1       0.1397177529E-04       4    7    1         0.7961830720E-03      0.1717620790E-02

    ------------------------------------------------
       NWT REQUIRED            4 OUTER ITERATIONS 
       AND A TOTAL OF          7 INNER ITERATIONS.
    ------------------------------------------------

 NO OUTPUT CONTROL FOR STRESS PERIOD   31   TIME STEP   13
 
 SOLVING FOR HEAD 
                                                   Max.-Head-Change                         Max.-Flux-Residual
  Residual-Control   Outer-Iter.   Inner-Iter.     Column Row Layer    Maximum-Head-Change  Column Row Layer    Maximum-Flux-Residual          L2-NORM 
          0                 1           2             4    7     1      -0.5249313096E-01       4    7    1        -0.2754286738E+01      0.5920471966E+01
          0                 2           2             4    7     1       0.5106107672E-02       4    7    1         0.2754258189E+00      0.5920430566E+00
          0                 3           2             4    7     1      -0.3477074191E-03       4    7    1        -0.1927984266E-01      0.4144295109E-01
          0                 4           1             4    7     1       0.1383560179E-04       4    7    1         0.7885465438E-03      0.1695011645E-02

    ------------------------------------------------
       NWT REQUIRED            4 OUTER ITERATIONS 
       AND A TOTAL OF          7 INNER ITERATIONS.
    ------------------------------------------------

 NO OUTPUT CONTROL FOR STRESS PERIOD   31   TIME STEP   14
 
 SOLVING FOR HEAD 
                                                   Max.-Head-Change                         Max.-Flux-Residual
  Residual-Control   Outer-Iter.   Inner-Iter.     Column Row Layer    Maximum-Head-Change  Column Row Layer    Maximum-Flux-Residual          L2-NORM 
          0                 1           2             4    7     1      -0.5197400399E-01       4    7    1        -0.2727439974E+01      0.5844259898E+01
          0                 2           2             4    7     1       0.5055610654E-02       4    7    1         0.2727411338E+00      0.5844220421E+00
          0                 3           2             4    7     1      -0.3442687607E-03       4    7    1        -0.1909191471E-01      0.4090950360E-01
          0                 4           1             4    7     1       0.1369877425E-04       4    7    1         0.7808602818E-03      0.1673193089E-02

    ------------------------------------------------
       NWT REQUIRED            4 OUTER ITERATIONS 
       AND A TOTAL OF          7 INNER ITERATIONS.
    ------------------------------------------------

 NO OUTPUT CONTROL FOR STRESS PERIOD   31   TIME STEP   15
 
 SOLVING FOR HEAD 
                                                   Max.-Head-Change                         Max.-Flux-Residual
  Residual-Control   Outer-Iter.   Inner-Iter.     Column Row Layer    Maximum-Head-Change  Column Row Layer    Maximum-Flux-Residual          L2-NORM 
          0                 1           2             4    7     1      -0.5145320509E-01       4    7    1        -0.2700464607E+01      0.5770675044E+01
          0                 2           2             4    7     1       0.5004951096E-02       4    7    1         0.2700435946E+00      0.5770637302E+00
          0                 3           2             4    7     1      -0.3408190328E-03       4    7    1        -0.1890308691E-01      0.4039442025E-01
          0                 4           1             4    7     1       0.1356150634E-04       4    7    1         0.7731372052E-03      0.1652123082E-02

    ------------------------------------------------
       NWT REQUIRED            4 OUTER ITERATIONS 
       AND A TOTAL OF          7 INNER ITERATIONS.
    ------------------------------------------------

 NO OUTPUT CONTROL FOR STRESS PERIOD   31   TIME STEP   16
 
 SOLVING FOR HEAD 
                                                   Max.-Head-Change                         Max.-Flux-Residual
  Residual-Control   Outer-Iter.   Inner-Iter.     Column Row Layer    Maximum-Head-Change  Column Row Layer    Maximum-Flux-Residual          L2-NORM 
          0                 1           2             4    7     1      -0.5093147489E-01       4    7    1        -0.2673402565E+01      0.5699568507E+01
          0                 2           2             4    7     1       0.4954201030E-02       4    7    1         0.2673373936E+00      0.5699532286E+00
          0                 3           2             4    7     1      -0.3373631410E-03       4    7    1        -0.1871365273E-01      0.3989670495E-01
          0                 4           1             4    7     1       0.1342399333E-04       4    7    1         0.7653893490E-03      0.1631775143E-02

    ------------------------------------------------
       NWT REQUIRED            4 OUTER ITERATIONS 
       AND A TOTAL OF          7 INNER ITERATIONS.
    ------------------------------------------------

 NO OUTPUT CONTROL FOR STRESS PERIOD   31   TIME STEP   17
 
 SOLVING FOR HEAD 
                                                   Max.-Head-Change                         Max.-Flux-Residual
  Residual-Control   Outer-Iter.   Inner-Iter.     Column Row Layer    Maximum-Head-Change  Column Row Layer    Maximum-Flux-Residual          L2-NORM 
          0                 1           2             4    7     1      -0.5040963515E-01       4    7    1        -0.2646299544E+01      0.5630810875E+01
          0                 2           2             4    7     1       0.4903440385E-02       4    7    1         0.2646270998E+00      0.5630776125E+00
          0                 3           2             4    7     1      -0.3339065275E-03       4    7    1        -0.1852393200E-01      0.3941542379E-01
          0                 4           1             4    7     1       0.1328645131E-04       4    7    1         0.7576297332E-03      0.1612107551E-02

    ------------------------------------------------
       NWT REQUIRED            4 OUTER ITERATIONS 
       AND A TOTAL OF          7 INNER ITERATIONS.
    ------------------------------------------------

 NO OUTPUT CONTROL FOR STRESS PERIOD   31   TIME STEP   18
 
 SOLVING FOR HEAD 
                                                   Max.-Head-Change                         Max.-Flux-Residual
  Residual-Control   Outer-Iter.   Inner-Iter.     Column Row Layer    Maximum-Head-Change  Column Row Layer    Maximum-Flux-Residual          L2-NORM 
          0                 1           2             4    7     1      -0.4988818350E-01       4    7    1        -0.2619183564E+01      0.5564288949E+01
          0                 2           2             4    7     1       0.4852717558E-02       4    7    1         0.2619155148E+00      0.5564255364E+00
          0                 3           2             4    7     1      -0.3304524892E-03       4    7    1        -0.1833412084E-01      0.3894978473E-01
          0                 4           1             4    7     1       0.1314901186E-04       4    7    1         0.7498664563E-03      0.1593046407E-02

    ------------------------------------------------
       NWT REQUIRED            4 OUTER ITERATIONS 
       AND A TOTAL OF          7 INNER ITERATIONS.
    ------------------------------------------------

 NO OUTPUT CONTROL FOR STRESS PERIOD   31   TIME STEP   19
 
 SOLVING FOR HEAD 
                                                   Max.-Head-Change                         Max.-Flux-Residual
  Residual-Control   Outer-Iter.   Inner-Iter.     Column Row Layer    Maximum-Head-Change  Column Row Layer    Maximum-Flux-Residual          L2-NORM 
          0                 1           2             4    7     1      -0.4936770006E-01       4    7    1        -0.2592087721E+01      0.5499873695E+01
          0                 2           2             4    7     1       0.4802088973E-02       4    7    1         0.2592059476E+00      0.5499841294E+00
          0                 3           2             4    7     1      -0.3270048678E-03       4    7    1        -0.1814445091E-01      0.3849888540E-01
          0                 4           1             4    7     1       0.1301182789E-04       4    7    1         0.7421089410E-03      0.1574604295E-02

    ------------------------------------------------
       NWT REQUIRED            4 OUTER ITERATIONS 
       AND A TOTAL OF          7 INNER ITERATIONS.
    ------------------------------------------------

 NO OUTPUT CONTROL FOR STRESS PERIOD   31   TIME STEP   20
 
 SOLVING FOR HEAD 
                                                   Max.-Head-Change                         Max.-Flux-Residual
  Residual-Control   Outer-Iter.   Inner-Iter.     Column Row Layer    Maximum-Head-Change  Column Row Layer    Maximum-Flux-Residual          L2-NORM 
          0                 1           2             4    7     1      -0.4884872169E-01       4    7    1        -0.2565042095E+01      0.5437466271E+01
          0                 2           2             4    7     1       0.4751606844E-02       4    7    1         0.2565014058E+00      0.5437434964E+00
          0                 3           2             4    7     1      -0.3235672185E-03       4    7    1        -0.1795513268E-01      0.3806204502E-01
          0                 4           1             4    7     1       0.1287504029E-04       4    7    1         0.7343658222E-03      0.1556734847E-02

    ------------------------------------------------
       NWT REQUIRED            4 OUTER ITERATIONS 
       AND A TOTAL OF          7 INNER ITERATIONS.
    ------------------------------------------------

 NO OUTPUT CONTROL FOR STRESS PERIOD   31   TIME STEP   21
 
 SOLVING FOR HEAD 
                                                   Max.-Head-Change                         Max.-Flux-Residual
  Residual-Control   Outer-Iter.   Inner-Iter.     Column Row Layer    Maximum-Head-Change  Column Row Layer    Maximum-Flux-Residual          L2-NORM 
          0                 1           2             4    7     1      -0.4833187252E-01       4    7    1        -0.2538081811E+01      0.5376971905E+01
          0                 2           2             4    7     1       0.4701331875E-02       4    7    1         0.2538054015E+00      0.5376941581E+00
          0                 3           2             4    7     1      -0.3201436764E-03       4    7    1        -0.1776641208E-01      0.3763859733E-01
          0                 4           1             4    7     1       0.1273881464E-04       4    7    1         0.7266471446E-03      0.1539422161E-02

    ------------------------------------------------
       NWT REQUIRED            4 OUTER ITERATIONS 
       AND A TOTAL OF          7 INNER ITERATIONS.
    ------------------------------------------------

 NO OUTPUT CONTROL FOR STRESS PERIOD   31   TIME STEP   22
 
 SOLVING FOR HEAD 
                                                   Max.-Head-Change                         Max.-Flux-Residual
  Residual-Control   Outer-Iter.   Inner-Iter.     Column Row Layer    Maximum-Head-Change  Column Row Layer    Maximum-Flux-Residual          L2-NORM 
          0                 1           2             4    7     1      -0.4781732515E-01       4    7    1        -0.2511217360E+01      0.5318282793E+01
          0                 2           2             4    7     1       0.4651280853E-02       4    7    1         0.2511189833E+00      0.5318253485E+00
          0                 3           2             4    7     1      -0.3167353834E-03       4    7    1        -0.1757836247E-01      0.3722778470E-01
          0                 4           1             4    7     1       0.1260319536E-04       4    7    1         0.7189558978E-03      0.1522616197E-02

    ------------------------------------------------
       NWT REQUIRED            4 OUTER ITERATIONS 
       AND A TOTAL OF          7 INNER ITERATIONS.
    ------------------------------------------------

 NO OUTPUT CONTROL FOR STRESS PERIOD   31   TIME STEP   23
 
 SOLVING FOR HEAD 
                                                   Max.-Head-Change                         Max.-Flux-Residual
  Residual-Control   Outer-Iter.   Inner-Iter.     Column Row Layer    Maximum-Head-Change  Column Row Layer    Maximum-Flux-Residual          L2-NORM 
          0                 1           2             4    7     1      -0.4730589787E-01       4    7    1        -0.2484494139E+01      0.5261337269E+01
          0                 2           2             4    7     1       0.4601533367E-02       4    7    1         0.2484466907E+00      0.5261308820E+00
          0                 3           2             4    7     1      -0.3133477595E-03       4    7    1        -0.1739130162E-01      0.3682917863E-01
          0                 4           1             4    7     1       0.1246839867E-04       4    7    1         0.7113051031E-03      0.1506313526E-02

    ------------------------------------------------
       NWT REQUIRED            4 OUTER ITERATIONS 
       AND A TOTAL OF          7 INNER ITERATIONS.
    ------------------------------------------------

 NO OUTPUT CONTROL FOR STRESS PERIOD   31   TIME STEP   24
 
 SOLVING FOR HEAD 
                                                   Max.-Head-Change                         Max.-Flux-Residual
  Residual-Control   Outer-Iter.   Inner-Iter.     Column Row Layer    Maximum-Head-Change  Column Row Layer    Maximum-Flux-Residual          L2-NORM 
          0                 1           2             4    7     1      -0.4679754863E-01       4    7    1        -0.2457910841E+01      0.5206043860E+01
          0                 2           2             4    7     1       0.4552085323E-02       4    7    1         0.2457883926E+00      0.5206016205E+00
          0                 3           2             4    7     1      -0.3099805266E-03       4    7    1        -0.1720522039E-01      0.3644213049E-01
          0                 4           1             4    7     1       0.1233441363E-04       4    7    1         0.7036943744E-03      0.1490484724E-02

    ------------------------------------------------
       NWT REQUIRED            4 OUTER ITERATIONS 
       AND A TOTAL OF          7 INNER ITERATIONS.
    ------------------------------------------------

 NO OUTPUT CONTROL FOR STRESS PERIOD   31   TIME STEP   25
 
 SOLVING FOR HEAD 
                                                   Max.-Head-Change                         Max.-Flux-Residual
  Residual-Control   Outer-Iter.   Inner-Iter.     Column Row Layer    Maximum-Head-Change  Column Row Layer    Maximum-Flux-Residual          L2-NORM 
          0                 1           2             4    7     1      -0.4629288607E-01       4    7    1        -0.2431501729E+01      0.5152327094E+01
          0                 2           2             4    7     1       0.4502995921E-02       4    7    1         0.2431475151E+00      0.5152300188E+00
          0                 3           2             4    7     1      -0.3066377153E-03       4    7    1        -0.1702035856E-01      0.3606611962E-01
          0                 4           1             4    7     1       0.1220139981E-04       4    7    1         0.6961335087E-03      0.1475105507E-02

    ------------------------------------------------
       NWT REQUIRED            4 OUTER ITERATIONS 
       AND A TOTAL OF          7 INNER ITERATIONS.
    ------------------------------------------------

 NO OUTPUT CONTROL FOR STRESS PERIOD   31   TIME STEP   26
 
 SOLVING FOR HEAD 
                                                   Max.-Head-Change                         Max.-Flux-Residual
  Residual-Control   Outer-Iter.   Inner-Iter.     Column Row Layer    Maximum-Head-Change  Column Row Layer    Maximum-Flux-Residual          L2-NORM 
          0                 1           2             4    7     1      -0.4579220935E-01       4    7    1        -0.2405283784E+01      0.5100123213E+01
          0                 2           2             4    7     1       0.4454294256E-02       4    7    1         0.2405257558E+00      0.5100097167E+00
          0                 3           2             4    7     1      -0.3033213075E-03       4    7    1        -0.1683683499E-01      0.3570071299E-01
          0                 4           1             4    7     1       0.1206943733E-04       4    7    1         0.6886274086E-03      0.1460158650E-02

    ------------------------------------------------
       NWT REQUIRED            4 OUTER ITERATIONS 
       AND A TOTAL OF          7 INNER ITERATIONS.
    ------------------------------------------------

 NO OUTPUT CONTROL FOR STRESS PERIOD   31   TIME STEP   27
 
 SOLVING FOR HEAD 
                                                   Max.-Head-Change                         Max.-Flux-Residual
  Residual-Control   Outer-Iter.   Inner-Iter.     Column Row Layer    Maximum-Head-Change  Column Row Layer    Maximum-Flux-Residual          L2-NORM 
          0                 1           2             4    7     1      -0.4529565237E-01       4    7    1        -0.2379265229E+01      0.5049362912E+01
          0                 2           2             4    7     1       0.4405993351E-02       4    7    1         0.2379239372E+00      0.5049337444E+00
          0                 3           2             4    7     1      -0.3000321897E-03       4    7    1        -0.1665470728E-01      0.3534538497E-01
          0                 4           1             4    7     1       0.1193856016E-04       4    7    1         0.6811783646E-03      0.1445627169E-02

    ------------------------------------------------
       NWT REQUIRED            4 OUTER ITERATIONS 
       AND A TOTAL OF          7 INNER ITERATIONS.
    ------------------------------------------------

 NO OUTPUT CONTROL FOR STRESS PERIOD   31   TIME STEP   28
 
 SOLVING FOR HEAD 
                                                   Max.-Head-Change                         Max.-Flux-Residual
  Residual-Control   Outer-Iter.   Inner-Iter.     Column Row Layer    Maximum-Head-Change  Column Row Layer    Maximum-Flux-Residual          L2-NORM 
          0                 1           2             4    7     1      -0.4480346383E-01       4    7    1        -0.2353460296E+01      0.4999987140E+01
          0                 2           2             4    7     1       0.4358117394E-02       4    7    1         0.2353434819E+00      0.4999962508E+00
          0                 3           2             4    7     1      -0.2967720084E-03       4    7    1        -0.1647407495E-01      0.3499976181E-01
          0                 4           1             4    7     1       0.1180883403E-04       4    7    1         0.6737904801E-03      0.1565958294E-02

    ------------------------------------------------
       NWT REQUIRED            4 OUTER ITERATIONS 
       AND A TOTAL OF          7 INNER ITERATIONS.
    ------------------------------------------------

 NO OUTPUT CONTROL FOR STRESS PERIOD   31   TIME STEP   29
 
 SOLVING FOR HEAD 
                                                   Max.-Head-Change                         Max.-Flux-Residual
  Residual-Control   Outer-Iter.   Inner-Iter.     Column Row Layer    Maximum-Head-Change  Column Row Layer    Maximum-Flux-Residual          L2-NORM 
          0                 1           2             4    7     1      -0.4431612768E-01       4    7    1        -0.2327896448E+01      0.4951938091E+01
          0                 2           2             4    7     1       0.4310713456E-02       4    7    1         0.2327871360E+00      0.4951913924E+00
          0                 3           2             4    7     1      -0.2935439703E-03       4    7    1        -0.1629513029E-01      0.3466341734E-01
          0                 4           1             4    7     1       0.1168038766E-04       4    7    1         0.6664716468E-03      0.1417742413E-02

    ------------------------------------------------
       NWT REQUIRED            4 OUTER ITERATIONS 
       AND A TOTAL OF          7 INNER ITERATIONS.
    ------------------------------------------------

 NO OUTPUT CONTROL FOR STRESS PERIOD   31   TIME STEP   30



 STREAM LISTING     PERIOD     31   STEP       30

 LAYER ROW COL. STREAM  RCH.  FLOW INTO     FLOW TO   FLOW OUT OF   OVRLND.     DIRECT     STREAM       STREAM     STREAM     STREAM   STREAMBED  STREAMBED
                SEG.NO.  NO.  STRM. RCH.    AQUIFER    STRM. RCH.    RUNOFF     PRECIP       ET          HEAD       DEPTH      WIDTH   CONDCTNC.   GRADIENT

   1    1    1     1     1    3.1124E+01  2.7164E-01   3.0852E+01  0.000E+00  0.000E+00  0.000E+00  1.09431E+03  1.259E+00  1.417E+01  6.378E-02  1.420E+00
   1    2    2     1     2    3.0852E+01  4.2045E-01   3.0432E+01  0.000E+00  0.000E+00  0.000E+00  1.08931E+03  1.256E+00  1.411E+01  9.879E-02  1.419E+00
   1    3    3     1     3    3.0432E+01  3.5834E-01   3.0074E+01  0.000E+00  0.000E+00  0.000E+00  1.08367E+03  1.252E+00  1.404E+01  8.427E-02  1.417E+00
   1    3    4     1     4    3.0074E+01  3.2975E-01   2.9744E+01  0.000E+00  0.000E+00  0.000E+00  1.07866E+03  1.249E+00  1.398E+01  7.761E-02  1.416E+00
   1    4    5     2     1    2.7744E+01  3.3390E-01   2.7410E+01  0.000E+00  0.000E+00  0.000E+00  1.07321E+03  1.281E+00  1.200E+01  7.800E-02  1.427E+00
   1    5    6     2     2    2.7410E+01  2.5635E-01   2.7154E+01  0.000E+00  0.000E+00  0.000E+00  1.06778E+03  1.273E+00  1.200E+01  6.000E-02  1.424E+00
   1    6    6     2     3    2.7154E+01  2.5592E-01   2.6898E+01  0.000E+00  0.000E+00  0.000E+00  1.06306E+03  1.265E+00  1.200E+01  6.000E-02  1.422E+00
   1    7    6     2     4    2.6898E+01  2.5549E-01   2.6642E+01  0.000E+00  0.000E+00  0.000E+00  1.05833E+03  1.258E+00  1.200E+01  6.000E-02  1.419E+00
   1    8    6     2     5    2.6642E+01  2.5506E-01   2.6387E+01  0.000E+00  0.000E+00  0.000E+00  1.05361E+03  1.251E+00  1.200E+01  6.000E-02  1.417E+00
   1    3    5     3     1    2.0000E+00  2.8252E-01   1.7175E+00  0.000E+00  0.000E+00  0.000E+00  1.07555E+03  1.909E+00  9.636E+00  7.227E-02  1.955E+00
   1    3    6     3     2    1.7175E+00  2.4905E-01   1.4684E+00  0.000E+00  0.000E+00  0.000E+00  1.07264E+03  1.727E+00  8.909E+00  6.682E-02  1.864E+00
   1    3    7     3     3    1.4684E+00  1.9718E-01   1.2712E+00  0.000E+00  0.000E+00  0.000E+00  1.06987E+03  1.555E+00  8.218E+00  5.547E-02  1.777E+00
   1    4    8     3     4    1.2712E+00  2.2567E-01   1.0456E+00  0.000E+00  0.000E+00  0.000E+00  1.06682E+03  1.364E+00  7.455E+00  6.709E-02  1.682E+00
   1    5    8     3     5    1.0456E+00  1.5790E-01   8.8768E-01  0.000E+00  0.000E+00  0.000E+00  1.06362E+03  1.164E+00  6.655E+00  4.991E-02  1.582E+00
   1    6    8     3     6    8.8768E-01  5.5980E-02   8.3170E-01  0.000E+00  0.000E+00  0.000E+00  1.06158E+03  1.036E+00  6.145E+00  1.844E-02  1.518E+00
   1    5   10     4     1    1.0000E+01  9.0919E-02   9.9091E+00  0.000E+00  0.000E+00  0.000E+00  1.07836E+03  6.368E-01  1.000E+01  2.500E-02  1.212E+00
   1    5    9     4     2    9.9091E+00  1.8158E-01   9.7275E+00  0.000E+00  0.000E+00  0.000E+00  1.07154E+03  6.315E-01  1.000E+01  5.000E-02  1.211E+00
   1    6    8     4     3    9.7275E+00  1.2689E-01   9.6006E+00  0.000E+00  0.000E+00  0.000E+00  1.06381E+03  6.256E-01  1.000E+01  3.500E-02  1.209E+00
   1    6    8     5     1    1.0432E+01  2.2686E-01   1.0205E+01  0.000E+00  0.000E+00  0.000E+00  1.05868E+03  6.790E-01  1.542E+01  6.166E-02  1.226E+00
   1    7    7     5     2    1.0205E+01  2.7894E-01   9.9265E+00  0.000E+00  0.000E+00  0.000E+00  1.05417E+03  6.732E-01  1.519E+01  7.594E-02  1.224E+00
   1    8    7     5     3    9.9265E+00  1.9221E-01   9.7343E+00  0.000E+00  0.000E+00  0.000E+00  1.04992E+03  6.676E-01  1.497E+01  5.241E-02  1.223E+00
   1    8    6     5     4    9.7343E+00  1.3577E-01   9.5985E+00  0.000E+00  0.000E+00  0.000E+00  1.04691E+03  6.637E-01  1.482E+01  3.706E-02  1.221E+00
   1    9    6     6     1    3.5986E+01  2.7095E-01   3.5715E+01  0.000E+00  0.000E+00  0.000E+00  1.04424E+03  1.516E+00  1.200E+01  6.000E-02  1.505E+00
   1   10    7     6     2    3.5715E+01  2.7054E-01   3.5444E+01  0.000E+00  0.000E+00  0.000E+00  1.03969E+03  1.509E+00  1.200E+01  6.000E-02  1.503E+00
   1   11    7     6     3    3.5444E+01  2.7013E-01   3.5174E+01  0.000E+00  0.000E+00  0.000E+00  1.03514E+03  1.502E+00  1.200E+01  6.000E-02  1.501E+00
   1   12    7     6     4    3.5174E+01  2.6971E-01   3.4904E+01  0.000E+00  0.000E+00  0.000E+00  1.03059E+03  1.495E+00  1.200E+01  6.000E-02  1.498E+00
   1   13    7     6     5    3.4904E+01  2.0898E-02   3.4883E+01  0.000E+00  0.000E+00  0.000E+00  1.02740E+03  1.491E+00  1.200E+01  2.400E-02  2.903E-01
   1   14    9     7     1    1.5000E+02  1.3884E+00   1.4861E+02  0.000E+00  0.000E+00  0.000E+00  1.03987E+03  2.288E+00  5.529E+01  5.593E-01  8.275E-01
   1   13    8     7     2    1.4861E+02  2.0096E+00   1.4660E+02  0.000E+00  0.000E+00  0.000E+00  1.03478E+03  2.279E+00  5.525E+01  6.147E-01  1.090E+00
   1   13    7     7     3    1.4660E+02  1.7633E+00   1.4484E+02  0.000E+00  0.000E+00  0.000E+00  1.02969E+03  2.268E+00  5.521E+01  5.584E-01  1.053E+00
   1   13    6     8     1    1.7972E+02  1.2439E+00   1.7848E+02  0.000E+00  0.000E+00  0.000E+00  1.02489E+03  3.011E+00  4.365E+01  4.448E-01  9.321E-01
   1   13    5     8     2    1.7848E+02  4.5168E-01   1.7803E+02  0.000E+00  0.000E+00  0.000E+00  1.01863E+03  3.005E+00  4.357E+01  4.440E-01  3.391E-01
   1   13    4     8     3    1.7803E+02 -1.5667E+00   1.7959E+02  0.000E+00  0.000E+00  0.000E+00  1.01238E+03  3.009E+00  4.363E+01  4.446E+00 -1.175E-01
   1   13    3     8     4    1.7959E+02 -3.2273E+00   1.8282E+02  0.000E+00  0.000E+00  0.000E+00  1.00615E+03  3.024E+00  4.384E+01  4.468E+00 -2.408E-01
   1   13    2     8     5    1.8282E+02 -2.4688E+00   1.8529E+02  0.000E+00  0.000E+00  0.000E+00  9.99916E+02  3.041E+00  4.410E+01  4.494E+00 -1.831E-01
   1   13    1     8     6    1.8529E+02 -1.9541E+00   1.8724E+02  0.000E+00  0.000E+00  0.000E+00  9.94930E+02  3.055E+00  4.430E+01  2.709E+00 -2.405E-01
   1    8    6     9     1    0.0000E+00  0.0000E+00   0.0000E+00  0.000E+00  0.000E+00  0.000E+00  1.07875E+03  0.000E+00  4.000E+00  0.000E+00  1.000E+00
   1    8    5     9     2    0.0000E+00  0.0000E+00   0.0000E+00  0.000E+00  0.000E+00  0.000E+00  1.07825E+03  0.000E+00  4.000E+00  0.000E+00  1.000E+00





UNSATURATED ZONE PACKAGE VOLUMETRIC BUDGET FOR  TIME STEP    30 STRESS PERIOD   31
  ------------------------------------------------------------------------------



     CUMULATIVE VOLUMES      L**3       RATES FOR THIS TIME STEP      L**3/T
     ------------------                 ------------------------

           IN:                                      IN:
           ---                                      ---
        INFILTRATION =   953461886.2570          INFILTRATION =          23.3175

          OUT:                                     OUT:
          ----                                     ----
              UZF ET =   952654967.3924                UZF ET =          23.3175
        UZF RECHARGE =       73224.0000          UZF RECHARGE =       0.0000E+00

            IN - OUT =      733694.8646              IN - OUT =       0.0000E+00

          STORAGE:                                 STORAGE:
          --------                                 --------
      STORAGE CHANGE =      733694.9096        STORAGE CHANGE =      -7.4696E-16

 PERCENT DISCREPANCY IS DIFFERENCE BETWEEN IN-OUT MINUS CHANGE IN STORAGE
 DIVIDED BY THE AVERAGE OF IN AND OUT TIMES 100

 PERCENT DISCREPANCY =           0.00     PERCENT DISCREPANCY =           0.00






1
  VOLUMETRIC BUDGET FOR AGRICULTURAL FIELDS AT  END OF TIME STEP   30, STRESS PERIOD  31
  ------------------------------------------------------------------------------

     CUMULATIVE VOLUMES      L**3       RATES FOR THIS TIME STEP      L**3/T
     ------------------                 ------------------------

           IN:                                      IN:
           ---                                      ---
               AG WELLS  =   886518080.0000                 AG WELLS  =          22.4700
      DIVERSION SEGMENTS =           0.0000        DIVERSION SEGMENTS =           0.0000
       IRRIGATION PONDS  =           0.0000         IRRIGATION PONDS  =           0.0000
           GW IRRIGATION =           0.0000             GW IRRIGATION =           0.0000
           SW IRRIGATION =           0.0000             SW IRRIGATION =           0.0000
        SYSTEM LOSSES GW =           0.0000          SYSTEM LOSSES GW =           0.0000
        SYSTEM LOSSES SW =           0.0000          SYSTEM LOSSES SW =           0.0000

                TOTAL IN =   886518080.0000                  TOTAL IN =          22.4700

          OUT:                                     OUT:
          ----                                     ----
               AG WELLS  =           0.0000                 AG WELLS  =           0.0000
      DIVERSION SEGMENTS =           0.0000        DIVERSION SEGMENTS =           0.0000
       IRRIGATION PONDS  =           0.0000         IRRIGATION PONDS  =           0.0000
           GW IRRIGATION =   886518080.0000             GW IRRIGATION =          22.4700
           SW IRRIGATION =           0.0000             SW IRRIGATION =           0.0000
        SYSTEM LOSSES GW =           0.0000          SYSTEM LOSSES GW =           0.0000
        SYSTEM LOSSES SW =           0.0000          SYSTEM LOSSES SW =           0.0000

               TOTAL OUT =   886518080.0000                 TOTAL OUT =          22.4700

                IN - OUT =           0.0000                  IN - OUT =           0.0000

     PERCENT DISCREPANCY =           0.00         PERCENT DISCREPANCY =           0.00



1
  VOLUMETRIC BUDGET FOR ENTIRE MODEL AT END OF TIME STEP   30, STRESS PERIOD  31
  ------------------------------------------------------------------------------

     CUMULATIVE VOLUMES      L**3       RATES FOR THIS TIME STEP      L**3/T
     ------------------                 ------------------------

           IN:                                      IN:
           ---                                      ---
             STORAGE     =  1188555648.0000               STORAGE     =          18.9031
       CONSTANT HEAD     =           0.0000         CONSTANT HEAD     =           0.0000
     HEAD DEP BOUNDS     =    22769584.0000       HEAD DEP BOUNDS     =           0.2893
      STREAM LEAKAGE     =   945594176.0000        STREAM LEAKAGE     =          13.0974
        UZF RECHARGE     =       73223.9531          UZF RECHARGE     =           0.0000
               GW ET     =           0.0000                 GW ET     =           0.0000
     SURFACE LEAKAGE     =           0.0000       SURFACE LEAKAGE     =           0.0000
           AG WELLS      =           0.0000             AG WELLS      =           0.0000

                TOTAL IN =  2156992512.0000                  TOTAL IN =          32.2899

          OUT:                                     OUT:
          ----                                     ----
             STORAGE     =   466929344.0000               STORAGE     =           0.3123
       CONSTANT HEAD     =           0.0000         CONSTANT HEAD     =           0.0000
     HEAD DEP BOUNDS     =    22814938.0000       HEAD DEP BOUNDS     =           0.2908
      STREAM LEAKAGE     =   780734272.0000        STREAM LEAKAGE     =           9.2169
        UZF RECHARGE     =           0.0000          UZF RECHARGE     =           0.0000
               GW ET     =           0.0000                 GW ET     =           0.0000
     SURFACE LEAKAGE     =           0.0000       SURFACE LEAKAGE     =           0.0000
           AG WELLS      =   886518080.0000             AG WELLS      =          22.4700

               TOTAL OUT =  2156996608.0000                 TOTAL OUT =          32.2899

                IN - OUT =       -4096.0000                  IN - OUT =      -6.1035E-05

     PERCENT DISCREPANCY =          -0.00         PERCENT DISCREPANCY =          -0.00






         TIME SUMMARY AT END OF TIME STEP   30 IN STRESS PERIOD   31
                    SECONDS     MINUTES      HOURS       DAYS        YEARS
                    -----------------------------------------------------------
   TIME STEP LENGTH  87667.      1461.1      24.352      1.0147     2.77799E-03
 STRESS PERIOD TIME 2.63000E+06  43833.      730.56      30.440     8.33397E-02
         TOTAL TIME 7.89864E+07 1.31644E+06  21941.      914.20      2.5029    
1
1
                            STRESS PERIOD NO.   32, LENGTH =   2630000.    
                            -----------------------------------------------

                              NUMBER OF TIME STEPS =    30

                               MULTIPLIER FOR DELT =     1.000

                            INITIAL TIME STEP SIZE =   87666.66    

 REUSING NON-PARAMETER GHB CELLS FROM LAST STRESS PERIOD

      2 GHB CELLS

 REUSING STREAM SEGMENT DATA FROM LAST STRESS PERIOD



            AREAL INFILTRATION RATE
 READING ON UNIT   19 WITH FORMAT: (FREE)              

            1           2           3           4           5           6           7           8           9          10
 ........................................................................................................................
   1   1.0000E-10  2.0000E-10   0.000       0.000       0.000       0.000       0.000       0.000       0.000       0.000    
   2   2.0000E-10  1.0000E-10  2.0000E-10   0.000       0.000      8.0000E-10  8.0000E-10  5.0000E-10   0.000       0.000    
   3    0.000      5.0000E-10  1.0000E-10  1.0000E-10  8.0000E-10  8.0000E-10  5.0000E-10  5.0000E-10   0.000       0.000    
   4   8.0000E-10  5.0000E-10  1.0000E-10  1.0000E-10  1.0000E-10  1.0000E-10  1.0000E-10  1.0000E-10  2.0000E-10   0.000    
   5   8.0000E-10  5.0000E-10  1.0000E-10  1.0000E-10  1.0000E-10  1.0000E-10  1.0000E-10  1.0000E-10  1.0000E-10  1.0000E-10
   6   8.0000E-10  5.0000E-10  5.0000E-10  2.0000E-10  2.0000E-10  1.0000E-10  1.0000E-10  1.0000E-10  1.0000E-10  5.0000E-10
   7   8.0000E-10  5.0000E-10  5.0000E-10  2.0000E-10  2.0000E-10  1.0000E-10  1.0000E-10  2.0000E-10  2.0000E-10   0.000    
   8    0.000      5.0000E-10  5.0000E-10  2.0000E-10  2.0000E-10  1.0000E-10  1.0000E-10  2.0000E-10  5.0000E-10   0.000    
   9    0.000      5.0000E-10  5.0000E-10  2.0000E-10  2.0000E-10  1.0000E-10  1.0000E-10  2.0000E-10  5.0000E-10   0.000    
  10    0.000      5.0000E-10  5.0000E-10  2.0000E-10  2.0000E-10  1.0000E-10  1.0000E-10  2.0000E-10  5.0000E-10  8.0000E-10
  11    0.000      1.0000E-10  1.0000E-10  1.0000E-10  1.0000E-10  1.0000E-10  1.0000E-10  2.0000E-10  5.0000E-10   0.000    
  12   1.0000E-10  1.0000E-10  1.0000E-10  1.0000E-10  1.0000E-10  1.0000E-10  1.0000E-10  1.0000E-10  2.0000E-10   0.000    
  13   1.0000E-10  1.0000E-10  2.0000E-10  2.0000E-10  2.0000E-10  2.0000E-10  2.0000E-10  1.0000E-10  1.0000E-10   0.000    
  14    0.000      2.0000E-10  5.0000E-10  5.0000E-10  5.0000E-10  5.0000E-10  5.0000E-10  2.0000E-10  1.0000E-10   0.000    
  15    0.000       0.000      8.0000E-10  8.0000E-10  8.0000E-10  8.0000E-10   0.000       0.000       0.000       0.000    

                  ET RATE =  4.000000E-07

 USING ET EXTINCTION DEPTH FROM PREVIOUS STRESS PERIOD. CURRENT PERIOD IS:      32

 USING EXTINCTION WATER CONTENT FROM PREVIOUS STRESS PERIOD. CURRENT PERIOD IS:      32

 USING AIR ENTRY PRESSURE FROM PREVIOUS STRESS PERIOD. CURRENT PERIOD IS:      32

 USING ROOT PRESSURE HEAD FROM PREVIOUS STRESS PERIOD. CURRENT PERIOD IS:      32

 USING ROOT ACTIVITY FROM PREVIOUS STRESS PERIOD. CURRENT PERIOD IS:      32

 PROCESSING AG STRESS PERIOD DATA

 READING AG STRESS PERIOD DATA

 READING IRRIGATION SEGMENT

 READING IRRIGATION WELL

 READING SUPPLEMENTAL WELL

 NO IRRPOND OR REUSING IRRPOND DATA FROM LAST STRESS PERIOD

 END PROCESSING AG STRESS PERIOD DATA OPTIONS
 
 SOLVING FOR HEAD 
                                                   Max.-Head-Change                         Max.-Flux-Residual
  Residual-Control   Outer-Iter.   Inner-Iter.     Column Row Layer    Maximum-Head-Change  Column Row Layer    Maximum-Flux-Residual          L2-NORM 
          0                 1           2             4    7     1      -0.1635521827E+00       4    7    1        -0.8552569401E+01      0.1997634310E+02
          0                 2           2             4    7     1       0.1590891245E-01       4    7    1         0.8552399822E+00      0.1997605485E+01
          0                 3           2             4    7     1      -0.1083340454E-02       4    7    1        -0.5986698505E-01      0.1398325396E+00
          0                 4           1             4    7     1       0.4310711884E-04       4    7    1         0.2448562359E-02      0.5719147469E-02

    ------------------------------------------------
       NWT REQUIRED            4 OUTER ITERATIONS 
       AND A TOTAL OF          7 INNER ITERATIONS.
    ------------------------------------------------

 NO OUTPUT CONTROL FOR STRESS PERIOD   32   TIME STEP    1
 
 SOLVING FOR HEAD 
                                                   Max.-Head-Change                         Max.-Flux-Residual
  Residual-Control   Outer-Iter.   Inner-Iter.     Column Row Layer    Maximum-Head-Change  Column Row Layer    Maximum-Flux-Residual          L2-NORM 
          0                 1           2             4    7     1      -0.1624513922E+00       4    7    1        -0.8497817266E+01      0.1966330662E+02
          0                 2           2             4    7     1       0.1580181960E-01       4    7    1         0.8497636887E+00      0.1966301135E+01
          0                 3           2             4    7     1      -0.1076047984E-02       4    7    1        -0.5948365457E-01      0.1376412072E+00
          0                 4           1             4    7     1       0.4281694398E-04       4    7    1         0.2432884073E-02      0.5629517383E-02

    ------------------------------------------------
       NWT REQUIRED            4 OUTER ITERATIONS 
       AND A TOTAL OF          7 INNER ITERATIONS.
    ------------------------------------------------

 NO OUTPUT CONTROL FOR STRESS PERIOD   32   TIME STEP    2
 
 SOLVING FOR HEAD 
                                                   Max.-Head-Change                         Max.-Flux-Residual
  Residual-Control   Outer-Iter.   Inner-Iter.     Column Row Layer    Maximum-Head-Change  Column Row Layer    Maximum-Flux-Residual          L2-NORM 
          0                 1           2             4    7     1      -0.1613081604E+00       4    7    1        -0.8440620192E+01      0.1936454916E+02
          0                 2           2             4    7     1       0.1569060032E-01       4    7    1         0.8440430306E+00      0.1936425428E+01
          0                 3           2             4    7     1      -0.1068474500E-02       4    7    1        -0.5908321731E-01      0.1355499304E+00
          0                 4           1             4    7     1       0.4251558724E-04       4    7    1         0.2416506126E-02      0.5543986081E-02

    ------------------------------------------------
       NWT REQUIRED            4 OUTER ITERATIONS 
       AND A TOTAL OF          7 INNER ITERATIONS.
    ------------------------------------------------

 NO OUTPUT CONTROL FOR STRESS PERIOD   32   TIME STEP    3
 
 SOLVING FOR HEAD 
                                                   Max.-Head-Change                         Max.-Flux-Residual
  Residual-Control   Outer-Iter.   Inner-Iter.     Column Row Layer    Maximum-Head-Change  Column Row Layer    Maximum-Flux-Residual          L2-NORM 
          0                 1           2             4    7     1      -0.1601266632E+00       4    7    1        -0.8381208042E+01      0.1907919386E+02
          0                 2           2             4    7     1       0.1557566064E-01       4    7    1         0.8381009851E+00      0.1907890006E+01
          0                 3           2             4    7     1      -0.1060647653E-02       4    7    1        -0.5866728181E-01      0.1335524763E+00
          0                 4           1             4    7     1       0.4220414901E-04       4    7    1         0.2399494297E-02      0.5462292158E-02

    ------------------------------------------------
       NWT REQUIRED            4 OUTER ITERATIONS 
       AND A TOTAL OF          7 INNER ITERATIONS.
    ------------------------------------------------

 NO OUTPUT CONTROL FOR STRESS PERIOD   32   TIME STEP    4
 
 SOLVING FOR HEAD 
                                                   Max.-Head-Change                         Max.-Flux-Residual
  Residual-Control   Outer-Iter.   Inner-Iter.     Column Row Layer    Maximum-Head-Change  Column Row Layer    Maximum-Flux-Residual          L2-NORM 
          0                 1           2             4    7     1      -0.1589112298E+00       4    7    1        -0.8319819163E+01      0.1880628619E+02
          0                 2           2             4    7     1       0.1545742156E-01       4    7    1         0.8319613778E+00      0.1880599413E+01
          0                 3           2             4    7     1      -0.1052596113E-02       4    7    1        -0.5823751592E-01      0.1316421517E+00
          0                 4           1             4    7     1       0.4188377054E-04       4    7    1         0.2381916824E-02      0.5384162346E-02

    ------------------------------------------------
       NWT REQUIRED            4 OUTER ITERATIONS 
       AND A TOTAL OF          7 INNER ITERATIONS.
    ------------------------------------------------

 NO OUTPUT CONTROL FOR STRESS PERIOD   32   TIME STEP    5
 
 SOLVING FOR HEAD 
                                                   Max.-Head-Change                         Max.-Flux-Residual
  Residual-Control   Outer-Iter.   Inner-Iter.     Column Row Layer    Maximum-Head-Change  Column Row Layer    Maximum-Flux-Residual          L2-NORM 
          0                 1           2             4    7     1      -0.1576656652E+00       4    7    1        -0.8256663490E+01      0.1854496431E+02
          0                 2           2             4    7     1       0.1533625306E-01       4    7    1         0.8256451938E+00      0.1854467447E+01
          0                 3           2             4    7     1      -0.1044345076E-02       4    7    1        -0.5779538868E-01      0.1298129271E+00
          0                 4           1             4    7     1       0.4155545345E-04       4    7    1         0.2363833760E-02      0.5309346265E-02

    ------------------------------------------------
       NWT REQUIRED            4 OUTER ITERATIONS 
       AND A TOTAL OF          7 INNER ITERATIONS.
    ------------------------------------------------

 NO OUTPUT CONTROL FOR STRESS PERIOD   32   TIME STEP    6
 
 SOLVING FOR HEAD 
                                                   Max.-Head-Change                         Max.-Flux-Residual
  Residual-Control   Outer-Iter.   Inner-Iter.     Column Row Layer    Maximum-Head-Change  Column Row Layer    Maximum-Flux-Residual          L2-NORM 
          0                 1           2             4    7     1      -0.1563935372E+00       4    7    1        -0.8191938324E+01      0.1829443561E+02
          0                 2           2             4    7     1       0.1521250207E-01       4    7    1         0.8191721552E+00      0.1829414848E+01
          0                 3           2             4    7     1      -0.1035918167E-02       4    7    1        -0.5734228073E-01      0.1280592610E+00
          0                 4           1             4    7     1       0.4122013856E-04       4    7    1         0.2345301595E-02      0.5237622807E-02

    ------------------------------------------------
       NWT REQUIRED            4 OUTER ITERATIONS 
       AND A TOTAL OF          7 INNER ITERATIONS.
    ------------------------------------------------

 NO OUTPUT CONTROL FOR STRESS PERIOD   32   TIME STEP    7
 
 SOLVING FOR HEAD 
                                                   Max.-Head-Change                         Max.-Flux-Residual
  Residual-Control   Outer-Iter.   Inner-Iter.     Column Row Layer    Maximum-Head-Change  Column Row Layer    Maximum-Flux-Residual          L2-NORM 
          0                 1           2             4    7     1      -0.1550984500E+00       4    7    1        -0.8125843191E+01      0.1805397656E+02
          0                 2           2             4    7     1       0.1508651908E-01       4    7    1         0.8125622070E+00      0.1805369253E+01
          0                 3           2             4    7     1      -0.1027339255E-02       4    7    1        -0.5687958828E-01      0.1263760786E+00
          0                 4           1             4    7     1       0.4087877544E-04       4    7    1         0.2326377440E-02      0.5168787991E-02

    ------------------------------------------------
       NWT REQUIRED            4 OUTER ITERATIONS 
       AND A TOTAL OF          7 INNER ITERATIONS.
    ------------------------------------------------

 NO OUTPUT CONTROL FOR STRESS PERIOD   32   TIME STEP    8
 
 SOLVING FOR HEAD 
                                                   Max.-Head-Change                         Max.-Flux-Residual
  Residual-Control   Outer-Iter.   Inner-Iter.     Column Row Layer    Maximum-Head-Change  Column Row Layer    Maximum-Flux-Residual          L2-NORM 
          0                 1           2             4    7     1      -0.1537833818E+00       4    7    1        -0.8058543183E+01      0.1782293594E+02
          0                 2           2             4    7     1       0.1495859366E-01       4    7    1         0.8058318516E+00      0.1782265528E+01
          0                 3           2             4    7     1      -0.1018628058E-02       4    7    1        -0.5640846653E-01      0.1247588300E+00
          0                 4           1             4    7     1       0.4053214845E-04       4    7    1         0.2307108512E-02      0.5102638716E-02

    ------------------------------------------------
       NWT REQUIRED            4 OUTER ITERATIONS 
       AND A TOTAL OF          7 INNER ITERATIONS.
    ------------------------------------------------

 NO OUTPUT CONTROL FOR STRESS PERIOD   32   TIME STEP    9
 
 SOLVING FOR HEAD 
                                                   Max.-Head-Change                         Max.-Flux-Residual
  Residual-Control   Outer-Iter.   Inner-Iter.     Column Row Layer    Maximum-Head-Change  Column Row Layer    Maximum-Flux-Residual          L2-NORM 
          0                 1           2             4    7     1      -0.1524513751E+00       4    7    1        -0.7990207248E+01      0.1760070978E+02
          0                 2           2             4    7     1       0.1482902168E-01       4    7    1         0.7989979769E+00      0.1760043285E+01
          0                 3           2             4    7     1      -0.1009804726E-02       4    7    1        -0.5593009777E-01      0.1232032764E+00
          0                 4           1             4    7     1       0.4018105924E-04       4    7    1         0.2287543169E-02      0.5039017955E-02

    ------------------------------------------------
       NWT REQUIRED            4 OUTER ITERATIONS 
       AND A TOTAL OF          7 INNER ITERATIONS.
    ------------------------------------------------

 NO OUTPUT CONTROL FOR STRESS PERIOD   32   TIME STEP   10
 
 SOLVING FOR HEAD 
                                                   Max.-Head-Change                         Max.-Flux-Residual
  Residual-Control   Outer-Iter.   Inner-Iter.     Column Row Layer    Maximum-Head-Change  Column Row Layer    Maximum-Flux-Residual          L2-NORM 
          0                 1           2             4    7     1      -0.1511053974E+00       4    7    1        -0.7921000414E+01      0.1738675811E+02
          0                 2           2             4    7     1       0.1469809169E-01       4    7    1         0.7920770793E+00      0.1738648500E+01
          0                 3           2             4    7     1      -0.1000888909E-02       4    7    1        -0.5544563676E-01      0.1217056422E+00
          0                 4           1             4    7     1       0.3982629066E-04       4    7    1         0.2267728691E-02      0.4977762312E-02

    ------------------------------------------------
       NWT REQUIRED            4 OUTER ITERATIONS 
       AND A TOTAL OF          7 INNER ITERATIONS.
    ------------------------------------------------

 NO OUTPUT CONTROL FOR STRESS PERIOD   32   TIME STEP   11
 
 SOLVING FOR HEAD 
                                                   Max.-Head-Change                         Max.-Flux-Residual
  Residual-Control   Outer-Iter.   Inner-Iter.     Column Row Layer    Maximum-Head-Change  Column Row Layer    Maximum-Flux-Residual          L2-NORM 
          0                 1           2             4    7     1      -0.1497479502E+00       4    7    1        -0.7851062023E+01      0.1718056809E+02
          0                 2           2             4    7     1       0.1456604694E-01       4    7    1         0.7850830873E+00      0.1718029961E+01
          0                 3           2             4    7     1      -0.9918971719E-03       4    7    1        -0.5495605854E-01      0.1202623535E+00
          0                 4           1             4    7     1       0.3946850090E-04       4    7    1         0.2247704908E-02      0.4918733744E-02

    ------------------------------------------------
       NWT REQUIRED            4 OUTER ITERATIONS 
       AND A TOTAL OF          7 INNER ITERATIONS.
    ------------------------------------------------

 NO OUTPUT CONTROL FOR STRESS PERIOD   32   TIME STEP   12
 
 SOLVING FOR HEAD 
                                                   Max.-Head-Change                         Max.-Flux-Residual
  Residual-Control   Outer-Iter.   Inner-Iter.     Column Row Layer    Maximum-Head-Change  Column Row Layer    Maximum-Flux-Residual          L2-NORM 
          0                 1           2             4    7     1      -0.1483813548E+00       4    7    1        -0.7780521786E+01      0.1698167591E+02
          0                 2           2             4    7     1       0.1443311208E-01       4    7    1         0.7780289666E+00      0.1698109067E+01
          0                 3           2             4    7     1      -0.9828448137E-03       4    7    1        -0.5446227080E-01      0.1188678908E+00
          0                 4           1             4    7     1       0.3910829922E-04       4    7    1         0.2227508963E-02      0.4861702226E-02

    ------------------------------------------------
       NWT REQUIRED            4 OUTER ITERATIONS 
       AND A TOTAL OF          7 INNER ITERATIONS.
    ------------------------------------------------

 NO OUTPUT CONTROL FOR STRESS PERIOD   32   TIME STEP   13
 
 SOLVING FOR HEAD 
                                                   Max.-Head-Change                         Max.-Flux-Residual
  Residual-Control   Outer-Iter.   Inner-Iter.     Column Row Layer    Maximum-Head-Change  Column Row Layer    Maximum-Flux-Residual          L2-NORM 
          0                 1           2             4    7     1      -0.1470080383E+00       4    7    1        -0.7709514631E+01      0.1678969929E+02
          0                 2           2             4    7     1       0.1429952631E-01       4    7    1         0.7709282051E+00      0.1678943921E+01
          0                 3           2             4    7     1      -0.9737481241E-03       4    7    1        -0.5396521772E-01      0.1175263282E+00
          0                 4           1             4    7     1       0.3874633344E-04       4    7    1         0.2207179458E-02      0.4806830912E-02

    ------------------------------------------------
       NWT REQUIRED            4 OUTER ITERATIONS 
       AND A TOTAL OF          7 INNER ITERATIONS.
    ------------------------------------------------

 NO OUTPUT CONTROL FOR STRESS PERIOD   32   TIME STEP   14
 
 SOLVING FOR HEAD 
                                                   Max.-Head-Change                         Max.-Flux-Residual
  Residual-Control   Outer-Iter.   Inner-Iter.     Column Row Layer    Maximum-Head-Change  Column Row Layer    Maximum-Flux-Residual          L2-NORM 
          0                 1           2             4    7     1      -0.1456301042E+00       4    7    1        -0.7638158979E+01      0.1660424126E+02
          0                 2           2             4    7     1       0.1416549099E-01       4    7    1         0.7637926397E+00      0.1660398562E+01
          0                 3           2             4    7     1      -0.9646208142E-03       4    7    1        -0.5346572791E-01      0.1162281531E+00
          0                 4           1             4    7     1       0.3838314926E-04       4    7    1         0.2186750305E-02      0.4753734565E-02

    ------------------------------------------------
       NWT REQUIRED            4 OUTER ITERATIONS 
       AND A TOTAL OF          7 INNER ITERATIONS.
    ------------------------------------------------

 NO OUTPUT CONTROL FOR STRESS PERIOD   32   TIME STEP   15
 
 SOLVING FOR HEAD 
                                                   Max.-Head-Change                         Max.-Flux-Residual
  Residual-Control   Outer-Iter.   Inner-Iter.     Column Row Layer    Maximum-Head-Change  Column Row Layer    Maximum-Flux-Residual          L2-NORM 
          0                 1           2             4    7     1      -0.1442493804E+00       4    7    1        -0.7566556818E+01      0.1642492445E+02
          0                 2           2             4    7     1       0.1403118495E-01       4    7    1         0.7566324653E+00      0.1642482706E+01
          0                 3           2             4    7     1      -0.9554750623E-03       4    7    1        -0.5296451511E-01      0.1149730835E+00
          0                 4           1             4    7     1       0.3801923138E-04       4    7    1         0.2166250662E-02      0.4702403443E-02

    ------------------------------------------------
       NWT REQUIRED            4 OUTER ITERATIONS 
       AND A TOTAL OF          7 INNER ITERATIONS.
    ------------------------------------------------

 NO OUTPUT CONTROL FOR STRESS PERIOD   32   TIME STEP   16
 
 SOLVING FOR HEAD 
                                                   Max.-Head-Change                         Max.-Flux-Residual
  Residual-Control   Outer-Iter.   Inner-Iter.     Column Row Layer    Maximum-Head-Change  Column Row Layer    Maximum-Flux-Residual          L2-NORM 
          0                 1           2             4    7     1      -0.1428678102E+00       4    7    1        -0.7494817375E+01      0.1625140332E+02
          0                 2           2             4    7     1       0.1389679719E-01       4    7    1         0.7494586001E+00      0.1625165928E+01
          0                 3           2             4    7     1      -0.9463237434E-03       4    7    1        -0.5246234357E-01      0.1137618687E+00
          0                 4           1             4    7     1       0.3765509176E-04       4    7    1         0.2145711818E-02      0.4652867456E-02

    ------------------------------------------------
       NWT REQUIRED            4 OUTER ITERATIONS 
       AND A TOTAL OF          7 INNER ITERATIONS.
    ------------------------------------------------

 NO OUTPUT CONTROL FOR STRESS PERIOD   32   TIME STEP   17
 
 SOLVING FOR HEAD 
                                                   Max.-Head-Change                         Max.-Flux-Residual
  Residual-Control   Outer-Iter.   Inner-Iter.     Column Row Layer    Maximum-Head-Change  Column Row Layer    Maximum-Flux-Residual          L2-NORM 
          0                 1           2             4    7     1      -0.1414867895E+00       4    7    1        -0.7423019658E+01      0.1608329875E+02
          0                 2           2             4    7     1       0.1376246318E-01       4    7    1         0.7422789414E+00      0.1608305819E+01
          0                 3           2             4    7     1      -0.9371760781E-03       4    7    1        -0.5195976618E-01      0.1125816579E+00
          0                 4           1             4    7     1       0.3729109766E-04       4    7    1         0.2125156376E-02      0.4604596023E-02

    ------------------------------------------------
       NWT REQUIRED            4 OUTER ITERATIONS 
       AND A TOTAL OF          7 INNER ITERATIONS.
    ------------------------------------------------

 NO OUTPUT CONTROL FOR STRESS PERIOD   32   TIME STEP   18
 
 SOLVING FOR HEAD 
                                                   Max.-Head-Change                         Max.-Flux-Residual
  Residual-Control   Outer-Iter.   Inner-Iter.     Column Row Layer    Maximum-Head-Change  Column Row Layer    Maximum-Flux-Residual          L2-NORM 
          0                 1           2             4    7     1      -0.1401082627E+00       4    7    1        -0.7351272286E+01      0.1592041085E+02
          0                 2           2             4    7     1       0.1362837231E-01       4    7    1         0.7351043475E+00      0.1592017498E+01
          0                 3           2             4    7     1      -0.9280449658E-03       4    7    1        -0.5145754303E-01      0.1114414738E+00
          0                 4           1             4    7     1       0.3692776221E-04       4    7    1         0.2104615440E-02      0.4557958638E-02

    ------------------------------------------------
       NWT REQUIRED            4 OUTER ITERATIONS 
       AND A TOTAL OF          7 INNER ITERATIONS.
    ------------------------------------------------

 NO OUTPUT CONTROL FOR STRESS PERIOD   32   TIME STEP   19
 
 SOLVING FOR HEAD 
                                                   Max.-Head-Change                         Max.-Flux-Residual
  Residual-Control   Outer-Iter.   Inner-Iter.     Column Row Layer    Maximum-Head-Change  Column Row Layer    Maximum-Flux-Residual          L2-NORM 
          0                 1           2             4    7     1      -0.1387333592E+00       4    7    1        -0.7279639845E+01      0.1576246388E+02
          0                 2           2             4    7     1       0.1349463429E-01       4    7    1         0.7279412736E+00      0.1576223267E+01
          0                 3           2             4    7     1      -0.9189378767E-03       4    7    1        -0.5095612603E-01      0.1103358757E+00
          0                 4           1             4    7     1       0.3656538289E-04       4    7    1         0.2084107462E-02      0.4512741950E-02

    ------------------------------------------------
       NWT REQUIRED            4 OUTER ITERATIONS 
       AND A TOTAL OF          7 INNER ITERATIONS.
    ------------------------------------------------

 NO OUTPUT CONTROL FOR STRESS PERIOD   32   TIME STEP   20
 
 SOLVING FOR HEAD 
                                                   Max.-Head-Change                         Max.-Flux-Residual
  Residual-Control   Outer-Iter.   Inner-Iter.     Column Row Layer    Maximum-Head-Change  Column Row Layer    Maximum-Flux-Residual          L2-NORM 
          0                 1           2             4    7     1      -0.1373633717E+00       4    7    1        -0.7208195385E+01      0.1560921757E+02
          0                 2           2             4    7     1       0.1336137480E-01       4    7    1         0.7207970221E+00      0.1560899096E+01
          0                 3           2             4    7     1      -0.9098633711E-03       4    7    1        -0.5045602636E-01      0.1092631802E+00
          0                 4           1             4    7     1       0.3620430002E-04       4    7    1         0.2063653367E-02      0.4468867853E-02

    ------------------------------------------------
       NWT REQUIRED            4 OUTER ITERATIONS 
       AND A TOTAL OF          7 INNER ITERATIONS.
    ------------------------------------------------

 NO OUTPUT CONTROL FOR STRESS PERIOD   32   TIME STEP   21
 
 SOLVING FOR HEAD 
                                                   Max.-Head-Change                         Max.-Flux-Residual
  Residual-Control   Outer-Iter.   Inner-Iter.     Column Row Layer    Maximum-Head-Change  Column Row Layer    Maximum-Flux-Residual          L2-NORM 
          0                 1           2             4    7     1      -0.1359996159E+00       4    7    1        -0.7137013166E+01      0.1546044755E+02
          0                 2           2             4    7     1       0.1322872181E-01       4    7    1         0.7136790158E+00      0.1546022550E+01
          0                 3           2             4    7     1      -0.9008301623E-03       4    7    1        -0.4995776367E-01      0.1082218188E+00
          0                 4           1             4    7     1       0.3584486002E-04       4    7    1         0.2043274390E-02      0.4426305791E-02

    ------------------------------------------------
       NWT REQUIRED            4 OUTER ITERATIONS 
       AND A TOTAL OF          7 INNER ITERATIONS.
    ------------------------------------------------

 NO OUTPUT CONTROL FOR STRESS PERIOD   32   TIME STEP   22
 
 SOLVING FOR HEAD 
                                                   Max.-Head-Change                         Max.-Flux-Residual
  Residual-Control   Outer-Iter.   Inner-Iter.     Column Row Layer    Maximum-Head-Change  Column Row Layer    Maximum-Flux-Residual          L2-NORM 
          0                 1           2             4    7     1      -0.1346431636E+00       4    7    1        -0.7066154173E+01      0.1531594451E+02
          0                 2           2             4    7     1       0.1309669195E-01       4    7    1         0.7065933510E+00      0.1531546002E+01
          0                 3           2             4    7     1      -0.8918393835E-03       4    7    1        -0.4946176479E-01      0.1072084529E+00
          0                 4           1             4    7     1       0.3548710929E-04       4    7    1         0.2022988038E-02      0.4384831248E-02

    ------------------------------------------------
       NWT REQUIRED            4 OUTER ITERATIONS 
       AND A TOTAL OF          7 INNER ITERATIONS.
    ------------------------------------------------

 NO OUTPUT CONTROL FOR STRESS PERIOD   32   TIME STEP   23
 
 SOLVING FOR HEAD 
                                                   Max.-Head-Change                         Max.-Flux-Residual
  Residual-Control   Outer-Iter.   Inner-Iter.     Column Row Layer    Maximum-Head-Change  Column Row Layer    Maximum-Flux-Residual          L2-NORM 
          0                 1           2             4    7     1      -0.1332952174E+00       4    7    1        -0.6995671410E+01      0.1517552448E+02
          0                 2           2             4    7     1       0.1296566510E-01       4    7    1         0.6995453286E+00      0.1517531194E+01
          0                 3           2             4    7     1      -0.8829169023E-03       4    7    1        -0.4896840053E-01      0.1062274170E+00
          0                 4           1             4    7     1       0.3513207546E-04       4    7    1         0.2002809418E-02      0.4344704539E-02

    ------------------------------------------------
       NWT REQUIRED            4 OUTER ITERATIONS 
       AND A TOTAL OF          7 INNER ITERATIONS.
    ------------------------------------------------

 NO OUTPUT CONTROL FOR STRESS PERIOD   32   TIME STEP   24
 
 SOLVING FOR HEAD 
                                                   Max.-Head-Change                         Max.-Flux-Residual
  Residual-Control   Outer-Iter.   Inner-Iter.     Column Row Layer    Maximum-Head-Change  Column Row Layer    Maximum-Flux-Residual          L2-NORM 
          0                 1           2             4    7     1      -0.1319565024E+00       4    7    1        -0.6925627687E+01      0.1503901593E+02
          0                 2           2             4    7     1       0.1283544863E-01       4    7    1         0.6925412232E+00      0.1503880788E+01
          0                 3           2             4    7     1      -0.8740496044E-03       4    7    1        -0.4847811041E-01      0.1052718909E+00
          0                 4           1             4    7     1       0.3477923769E-04       4    7    1         0.1982756548E-02      0.4305624592E-02

    ------------------------------------------------
       NWT REQUIRED            4 OUTER ITERATIONS 
       AND A TOTAL OF          7 INNER ITERATIONS.
    ------------------------------------------------

 NO OUTPUT CONTROL FOR STRESS PERIOD   32   TIME STEP   25
 
 SOLVING FOR HEAD 
                                                   Max.-Head-Change                         Max.-Flux-Residual
  Residual-Control   Outer-Iter.   Inner-Iter.     Column Row Layer    Maximum-Head-Change  Column Row Layer    Maximum-Flux-Residual          L2-NORM 
          0                 1           2             4    7     1      -0.1306280167E+00       4    7    1        -0.6856074609E+01      0.1490622346E+02
          0                 2           2             4    7     1       0.1270622737E-01       4    7    1         0.6855861942E+00      0.1490601968E+01
          0                 3           2             4    7     1      -0.8652500751E-03       4    7    1        -0.4799125554E-01      0.1043423639E+00
          0                 4           1             4    7     1       0.3442909620E-04       4    7    1         0.1962844158E-02      0.4267606199E-02

    ------------------------------------------------
       NWT REQUIRED            4 OUTER ITERATIONS 
       AND A TOTAL OF          7 INNER ITERATIONS.
    ------------------------------------------------

 NO OUTPUT CONTROL FOR STRESS PERIOD   32   TIME STEP   26
 
 SOLVING FOR HEAD 
                                                   Max.-Head-Change                         Max.-Flux-Residual
  Residual-Control   Outer-Iter.   Inner-Iter.     Column Row Layer    Maximum-Head-Change  Column Row Layer    Maximum-Flux-Residual          L2-NORM 
          0                 1           2             4    7     1      -0.1293103198E+00       4    7    1        -0.6787044803E+01      0.1477698753E+02
          0                 2           2             4    7     1       0.1257805801E-01       4    7    1         0.6786835026E+00      0.1477765041E+01
          0                 3           2             4    7     1      -0.8565221741E-03       4    7    1        -0.4750806417E-01      0.1034437752E+00
          0                 4           1             4    7     1       0.3408180516E-04       4    7    1         0.1943081621E-02      0.4230854231E-02

    ------------------------------------------------
       NWT REQUIRED            4 OUTER ITERATIONS 
       AND A TOTAL OF          7 INNER ITERATIONS.
    ------------------------------------------------

 NO OUTPUT CONTROL FOR STRESS PERIOD   32   TIME STEP   27
 
 SOLVING FOR HEAD 
                                                   Max.-Head-Change                         Max.-Flux-Residual
  Residual-Control   Outer-Iter.   Inner-Iter.     Column Row Layer    Maximum-Head-Change  Column Row Layer    Maximum-Flux-Residual          L2-NORM 
          0                 1           2             4    7     1      -0.1280040199E+00       4    7    1        -0.6718574382E+01      0.1465106394E+02
          0                 2           2             4    7     1       0.1243523115E-01       4    7    1         0.6707686705E+00      0.1465014315E+01
          0                 3           2             4    7     1      -0.8467960279E-03       4    7    1        -0.4695401442E-01      0.1025512200E+00
          0                 4           1             4    7     1       0.3369479349E-04       4    7    1         0.1920421002E-02      0.4194348420E-02

    ------------------------------------------------
       NWT REQUIRED            4 OUTER ITERATIONS 
       AND A TOTAL OF          7 INNER ITERATIONS.
    ------------------------------------------------

 NO OUTPUT CONTROL FOR STRESS PERIOD   32   TIME STEP   28
 
 SOLVING FOR HEAD 
                                                   Max.-Head-Change                         Max.-Flux-Residual
  Residual-Control   Outer-Iter.   Inner-Iter.     Column Row Layer    Maximum-Head-Change  Column Row Layer    Maximum-Flux-Residual          L2-NORM 
          0                 1           2             4    7     1      -0.1267566657E+00       4    7    1        -0.6651535372E+01      0.1452843447E+02
          0                 2           2             4    7     1       0.1232967360E-01       4    7    1         0.6651338591E+00      0.1452824550E+01
          0                 3           2             4    7     1      -0.8396079328E-03       4    7    1        -0.4655957643E-01      0.1016979328E+00
          0                 4           1             4    7     1       0.3340877266E-04       4    7    1         0.1904288457E-02      0.4159449743E-02

    ------------------------------------------------
       NWT REQUIRED            4 OUTER ITERATIONS 
       AND A TOTAL OF          7 INNER ITERATIONS.
    ------------------------------------------------

 NO OUTPUT CONTROL FOR STRESS PERIOD   32   TIME STEP   29
 
 SOLVING FOR HEAD 
                                                   Max.-Head-Change                         Max.-Flux-Residual
  Residual-Control   Outer-Iter.   Inner-Iter.     Column Row Layer    Maximum-Head-Change  Column Row Layer    Maximum-Flux-Residual          L2-NORM 
          0                 1           2             4    7     1      -0.1255038468E+00       4    7    1        -0.6585886291E+01      0.1440898643E+02
          0                 2           2             4    7     1       0.1220781265E-01       4    7    1         0.6585692291E+00      0.1440880150E+01
          0                 3           2             4    7     1      -0.8313096130E-03       4    7    1        -0.4610004949E-01      0.1008618205E+00
          0                 4           1             4    7     1       0.3307857485E-04       4    7    1         0.1885493802E-02      0.4125252726E-02

    ------------------------------------------------
       NWT REQUIRED            4 OUTER ITERATIONS 
       AND A TOTAL OF          7 INNER ITERATIONS.
    ------------------------------------------------

 NO OUTPUT CONTROL FOR STRESS PERIOD   32   TIME STEP   30



 STREAM LISTING     PERIOD     32   STEP       30

 LAYER ROW COL. STREAM  RCH.  FLOW INTO     FLOW TO   FLOW OUT OF   OVRLND.     DIRECT     STREAM       STREAM     STREAM     STREAM   STREAMBED  STREAMBED
                SEG.NO.  NO.  STRM. RCH.    AQUIFER    STRM. RCH.    RUNOFF     PRECIP       ET          HEAD       DEPTH      WIDTH   CONDCTNC.   GRADIENT

   1    1    1     1     1    2.8124E+01  2.5914E-01   2.7865E+01  0.000E+00  0.000E+00  0.000E+00  1.09427E+03  1.223E+00  1.364E+01  6.136E-02  1.408E+00
   1    2    2     1     2    2.7865E+01  4.0087E-01   2.7464E+01  0.000E+00  0.000E+00  0.000E+00  1.08928E+03  1.218E+00  1.358E+01  9.503E-02  1.406E+00
   1    3    3     1     3    2.7464E+01  3.4142E-01   2.7123E+01  0.000E+00  0.000E+00  0.000E+00  1.08363E+03  1.213E+00  1.351E+01  8.103E-02  1.404E+00
   1    3    4     1     4    2.7123E+01  3.1402E-01   2.6809E+01  0.000E+00  0.000E+00  0.000E+00  1.07862E+03  1.209E+00  1.344E+01  7.461E-02  1.403E+00
   1    4    5     2     1    2.4809E+01  3.2738E-01   2.4481E+01  0.000E+00  0.000E+00  0.000E+00  1.07313E+03  1.197E+00  1.200E+01  7.800E-02  1.399E+00
   1    5    6     2     2    2.4481E+01  2.5133E-01   2.4230E+01  0.000E+00  0.000E+00  0.000E+00  1.06770E+03  1.189E+00  1.200E+01  6.000E-02  1.396E+00
   1    6    6     2     3    2.4230E+01  2.5089E-01   2.3979E+01  0.000E+00  0.000E+00  0.000E+00  1.06297E+03  1.181E+00  1.200E+01  6.000E-02  1.394E+00
   1    7    6     2     4    2.3979E+01  2.5044E-01   2.3729E+01  0.000E+00  0.000E+00  0.000E+00  1.05825E+03  1.174E+00  1.200E+01  6.000E-02  1.391E+00
   1    8    6     2     5    2.3729E+01  2.5000E-01   2.3479E+01  0.000E+00  0.000E+00  0.000E+00  1.05353E+03  1.167E+00  1.200E+01  6.000E-02  1.389E+00
   1    3    5     3     1    2.0000E+00  2.8252E-01   1.7175E+00  0.000E+00  0.000E+00  0.000E+00  1.07555E+03  1.909E+00  9.636E+00  7.227E-02  1.955E+00
   1    3    6     3     2    1.7175E+00  2.4905E-01   1.4684E+00  0.000E+00  0.000E+00  0.000E+00  1.07264E+03  1.727E+00  8.909E+00  6.682E-02  1.864E+00
   1    3    7     3     3    1.4684E+00  1.9718E-01   1.2712E+00  0.000E+00  0.000E+00  0.000E+00  1.06987E+03  1.555E+00  8.218E+00  5.547E-02  1.777E+00
   1    4    8     3     4    1.2712E+00  2.2567E-01   1.0456E+00  0.000E+00  0.000E+00  0.000E+00  1.06682E+03  1.364E+00  7.455E+00  6.709E-02  1.682E+00
   1    5    8     3     5    1.0456E+00  1.5790E-01   8.8768E-01  0.000E+00  0.000E+00  0.000E+00  1.06362E+03  1.164E+00  6.655E+00  4.991E-02  1.582E+00
   1    6    8     3     6    8.8768E-01  5.5980E-02   8.3170E-01  0.000E+00  0.000E+00  0.000E+00  1.06158E+03  1.036E+00  6.145E+00  1.844E-02  1.518E+00
   1    5   10     4     1    1.0000E+01  9.0919E-02   9.9091E+00  0.000E+00  0.000E+00  0.000E+00  1.07836E+03  6.368E-01  1.000E+01  2.500E-02  1.212E+00
   1    5    9     4     2    9.9091E+00  1.8158E-01   9.7275E+00  0.000E+00  0.000E+00  0.000E+00  1.07154E+03  6.315E-01  1.000E+01  5.000E-02  1.211E+00
   1    6    8     4     3    9.7275E+00  1.2689E-01   9.6006E+00  0.000E+00  0.000E+00  0.000E+00  1.06381E+03  6.256E-01  1.000E+01  3.500E-02  1.209E+00
   1    6    8     5     1    1.0432E+01  2.2686E-01   1.0205E+01  0.000E+00  0.000E+00  0.000E+00  1.05868E+03  6.790E-01  1.542E+01  6.166E-02  1.226E+00
   1    7    7     5     2    1.0205E+01  2.7894E-01   9.9265E+00  0.000E+00  0.000E+00  0.000E+00  1.05417E+03  6.732E-01  1.519E+01  7.594E-02  1.224E+00
   1    8    7     5     3    9.9265E+00  1.9221E-01   9.7343E+00  0.000E+00  0.000E+00  0.000E+00  1.04992E+03  6.676E-01  1.497E+01  5.241E-02  1.223E+00
   1    8    6     5     4    9.7343E+00  1.3577E-01   9.5985E+00  0.000E+00  0.000E+00  0.000E+00  1.04691E+03  6.637E-01  1.482E+01  3.706E-02  1.221E+00
   1    9    6     6     1    3.3077E+01  2.6645E-01   3.2811E+01  0.000E+00  0.000E+00  0.000E+00  1.04417E+03  1.441E+00  1.200E+01  6.000E-02  1.480E+00
   1   10    7     6     2    3.2811E+01  2.6603E-01   3.2545E+01  0.000E+00  0.000E+00  0.000E+00  1.03962E+03  1.434E+00  1.200E+01  6.000E-02  1.478E+00
   1   11    7     6     3    3.2545E+01  2.6561E-01   3.2279E+01  0.000E+00  0.000E+00  0.000E+00  1.03506E+03  1.427E+00  1.200E+01  6.000E-02  1.476E+00
   1   12    7     6     4    3.2279E+01  2.6519E-01   3.2014E+01  0.000E+00  0.000E+00  0.000E+00  1.03051E+03  1.420E+00  1.200E+01  6.000E-02  1.473E+00
   1   13    7     6     5    3.2014E+01  1.9247E-02   3.1995E+01  0.000E+00  0.000E+00  0.000E+00  1.02733E+03  1.416E+00  1.200E+01  2.400E-02  2.673E-01
   1   14    9     7     1    1.5000E+02  1.3901E+00   1.4861E+02  0.000E+00  0.000E+00  0.000E+00  1.03987E+03  2.288E+00  5.529E+01  5.593E-01  8.285E-01
   1   13    8     7     2    1.4861E+02  2.0135E+00   1.4660E+02  0.000E+00  0.000E+00  0.000E+00  1.03478E+03  2.279E+00  5.525E+01  6.147E-01  1.092E+00
   1   13    7     7     3    1.4660E+02  1.7669E+00   1.4483E+02  0.000E+00  0.000E+00  0.000E+00  1.02969E+03  2.268E+00  5.521E+01  5.584E-01  1.055E+00
   1   13    6     8     1    1.7682E+02  1.2317E+00   1.7559E+02  0.000E+00  0.000E+00  0.000E+00  1.02487E+03  2.992E+00  4.339E+01  4.421E-01  9.286E-01
   1   13    5     8     2    1.7559E+02  4.4329E-01   1.7515E+02  0.000E+00  0.000E+00  0.000E+00  1.01861E+03  2.987E+00  4.331E+01  4.413E-01  3.348E-01
   1   13    4     8     3    1.7515E+02 -1.5832E+00   1.7673E+02  0.000E+00  0.000E+00  0.000E+00  1.01237E+03  2.990E+00  4.336E+01  4.419E+00 -1.194E-01
   1   13    3     8     4    1.7673E+02 -3.2337E+00   1.7997E+02  0.000E+00  0.000E+00  0.000E+00  1.00613E+03  3.006E+00  4.358E+01  4.441E+00 -2.427E-01
   1   13    2     8     5    1.7997E+02 -2.4717E+00   1.8244E+02  0.000E+00  0.000E+00  0.000E+00  9.99899E+02  3.024E+00  4.384E+01  4.468E+00 -1.844E-01
   1   13    1     8     6    1.8244E+02 -1.9605E+00   1.8440E+02  0.000E+00  0.000E+00  0.000E+00  9.94913E+02  3.038E+00  4.404E+01  2.693E+00 -2.427E-01
   1    8    6     9     1    0.0000E+00  0.0000E+00   0.0000E+00  0.000E+00  0.000E+00  0.000E+00  1.07875E+03  0.000E+00  4.000E+00  0.000E+00  1.000E+00
   1    8    5     9     2    0.0000E+00  0.0000E+00   0.0000E+00  0.000E+00  0.000E+00  0.000E+00  1.07825E+03  0.000E+00  4.000E+00  0.000E+00  1.000E+00





UNSATURATED ZONE PACKAGE VOLUMETRIC BUDGET FOR  TIME STEP    30 STRESS PERIOD   32
  ------------------------------------------------------------------------------



     CUMULATIVE VOLUMES      L**3       RATES FOR THIS TIME STEP      L**3/T
     ------------------                 ------------------------

           IN:                                      IN:
           ---                                      ---
        INFILTRATION =  1113411903.6334          INFILTRATION =          60.8175

          OUT:                                     OUT:
          ----                                     ----
              UZF ET =  1112604984.7688                UZF ET =          60.8175
        UZF RECHARGE =       73224.0000          UZF RECHARGE =       0.0000E+00

            IN - OUT =      733694.8646              IN - OUT =       0.0000E+00

          STORAGE:                                 STORAGE:
          --------                                 --------
      STORAGE CHANGE =      733694.9096        STORAGE CHANGE =      -2.6559E-15

 PERCENT DISCREPANCY IS DIFFERENCE BETWEEN IN-OUT MINUS CHANGE IN STORAGE
 DIVIDED BY THE AVERAGE OF IN AND OUT TIMES 100

 PERCENT DISCREPANCY =           0.00     PERCENT DISCREPANCY =           0.00






1
  VOLUMETRIC BUDGET FOR AGRICULTURAL FIELDS AT  END OF TIME STEP   30, STRESS PERIOD  32
  ------------------------------------------------------------------------------

     CUMULATIVE VOLUMES      L**3       RATES FOR THIS TIME STEP      L**3/T
     ------------------                 ------------------------

           IN:                                      IN:
           ---                                      ---
               AG WELLS  =  1044238400.0000                 AG WELLS  =          59.9700
      DIVERSION SEGMENTS =           0.0000        DIVERSION SEGMENTS =           0.0000
       IRRIGATION PONDS  =           0.0000         IRRIGATION PONDS  =           0.0000
           GW IRRIGATION =           0.0000             GW IRRIGATION =           0.0000
           SW IRRIGATION =           0.0000             SW IRRIGATION =           0.0000
        SYSTEM LOSSES GW =           0.0000          SYSTEM LOSSES GW =           0.0000
        SYSTEM LOSSES SW =           0.0000          SYSTEM LOSSES SW =           0.0000

                TOTAL IN =  1044238400.0000                  TOTAL IN =          59.9700

          OUT:                                     OUT:
          ----                                     ----
               AG WELLS  =           0.0000                 AG WELLS  =           0.0000
      DIVERSION SEGMENTS =           0.0000        DIVERSION SEGMENTS =           0.0000
       IRRIGATION PONDS  =           0.0000         IRRIGATION PONDS  =           0.0000
           GW IRRIGATION =  1044238400.0000             GW IRRIGATION =          59.9700
           SW IRRIGATION =           0.0000             SW IRRIGATION =           0.0000
        SYSTEM LOSSES GW =           0.0000          SYSTEM LOSSES GW =           0.0000
        SYSTEM LOSSES SW =           0.0000          SYSTEM LOSSES SW =           0.0000

               TOTAL OUT =  1044238400.0000                 TOTAL OUT =          59.9700

                IN - OUT =           0.0000                  IN - OUT =           0.0000

     PERCENT DISCREPANCY =           0.00         PERCENT DISCREPANCY =           0.00



1
  VOLUMETRIC BUDGET FOR ENTIRE MODEL AT END OF TIME STEP   30, STRESS PERIOD  32
  ------------------------------------------------------------------------------

     CUMULATIVE VOLUMES      L**3       RATES FOR THIS TIME STEP      L**3/T
     ------------------                 ------------------------

           IN:                                      IN:
           ---                                      ---
             STORAGE     =  1337142528.0000               STORAGE     =          56.4197
       CONSTANT HEAD     =           0.0000         CONSTANT HEAD     =           0.0000
     HEAD DEP BOUNDS     =    23530704.0000       HEAD DEP BOUNDS     =           0.2895
      STREAM LEAKAGE     =   979701632.0000        STREAM LEAKAGE     =          12.9750
        UZF RECHARGE     =       73223.9531          UZF RECHARGE     =           0.0000
               GW ET     =           0.0000                 GW ET     =           0.0000
     SURFACE LEAKAGE     =           0.0000       SURFACE LEAKAGE     =           0.0000
           AG WELLS      =           0.0000             AG WELLS      =           0.0000

                TOTAL IN =  2340448256.0000                  TOTAL IN =          69.6842

          OUT:                                     OUT:
          ----                                     ----
             STORAGE     =   467420032.0000               STORAGE     =           0.1750
       CONSTANT HEAD     =           0.0000         CONSTANT HEAD     =           0.0000
     HEAD DEP BOUNDS     =    23578956.0000       HEAD DEP BOUNDS     =           0.2903
      STREAM LEAKAGE     =   805214720.0000        STREAM LEAKAGE     =           9.2490
        UZF RECHARGE     =           0.0000          UZF RECHARGE     =           0.0000
               GW ET     =           0.0000                 GW ET     =           0.0000
     SURFACE LEAKAGE     =           0.0000       SURFACE LEAKAGE     =           0.0000
           AG WELLS      =  1044238400.0000             AG WELLS      =          59.9700

               TOTAL OUT =  2340452096.0000                 TOTAL OUT =          69.6844

                IN - OUT =       -3840.0000                  IN - OUT =      -1.9836E-04

     PERCENT DISCREPANCY =          -0.00         PERCENT DISCREPANCY =          -0.00






         TIME SUMMARY AT END OF TIME STEP   30 IN STRESS PERIOD   32
                    SECONDS     MINUTES      HOURS       DAYS        YEARS
                    -----------------------------------------------------------
   TIME STEP LENGTH  87667.      1461.1      24.352      1.0147     2.77799E-03
 STRESS PERIOD TIME 2.63000E+06  43833.      730.56      30.440     8.33397E-02
         TOTAL TIME 8.16164E+07 1.36027E+06  22671.      944.63      2.5863    
1
1
                            STRESS PERIOD NO.   33, LENGTH =   2630000.    
                            -----------------------------------------------

                              NUMBER OF TIME STEPS =    30

                               MULTIPLIER FOR DELT =     1.000

                            INITIAL TIME STEP SIZE =   87666.66    

 REUSING NON-PARAMETER GHB CELLS FROM LAST STRESS PERIOD

      2 GHB CELLS

 REUSING STREAM SEGMENT DATA FROM LAST STRESS PERIOD



            AREAL INFILTRATION RATE
 READING ON UNIT   19 WITH FORMAT: (FREE)              

            1           2           3           4           5           6           7           8           9          10
 ........................................................................................................................
   1   1.0000E-10  2.0000E-10   0.000       0.000       0.000       0.000       0.000       0.000       0.000       0.000    
   2   2.0000E-10  1.0000E-10  2.0000E-10   0.000       0.000      8.0000E-10  8.0000E-10  5.0000E-10   0.000       0.000    
   3    0.000      5.0000E-10  1.0000E-10  1.0000E-10  8.0000E-10  8.0000E-10  5.0000E-10  5.0000E-10   0.000       0.000    
   4   8.0000E-10  5.0000E-10  1.0000E-10  1.0000E-10  1.0000E-10  1.0000E-10  1.0000E-10  1.0000E-10  2.0000E-10   0.000    
   5   8.0000E-10  5.0000E-10  1.0000E-10  1.0000E-10  1.0000E-10  1.0000E-10  1.0000E-10  1.0000E-10  1.0000E-10  1.0000E-10
   6   8.0000E-10  5.0000E-10  5.0000E-10  2.0000E-10  2.0000E-10  1.0000E-10  1.0000E-10  1.0000E-10  1.0000E-10  5.0000E-10
   7   8.0000E-10  5.0000E-10  5.0000E-10  2.0000E-10  2.0000E-10  1.0000E-10  1.0000E-10  2.0000E-10  2.0000E-10   0.000    
   8    0.000      5.0000E-10  5.0000E-10  2.0000E-10  2.0000E-10  1.0000E-10  1.0000E-10  2.0000E-10  5.0000E-10   0.000    
   9    0.000      5.0000E-10  5.0000E-10  2.0000E-10  2.0000E-10  1.0000E-10  1.0000E-10  2.0000E-10  5.0000E-10   0.000    
  10    0.000      5.0000E-10  5.0000E-10  2.0000E-10  2.0000E-10  1.0000E-10  1.0000E-10  2.0000E-10  5.0000E-10  8.0000E-10
  11    0.000      1.0000E-10  1.0000E-10  1.0000E-10  1.0000E-10  1.0000E-10  1.0000E-10  2.0000E-10  5.0000E-10   0.000    
  12   1.0000E-10  1.0000E-10  1.0000E-10  1.0000E-10  1.0000E-10  1.0000E-10  1.0000E-10  1.0000E-10  2.0000E-10   0.000    
  13   1.0000E-10  1.0000E-10  2.0000E-10  2.0000E-10  2.0000E-10  2.0000E-10  2.0000E-10  1.0000E-10  1.0000E-10   0.000    
  14    0.000      2.0000E-10  5.0000E-10  5.0000E-10  5.0000E-10  5.0000E-10  5.0000E-10  2.0000E-10  1.0000E-10   0.000    
  15    0.000       0.000      8.0000E-10  8.0000E-10  8.0000E-10  8.0000E-10   0.000       0.000       0.000       0.000    

                  ET RATE =  3.250000E-07

 USING ET EXTINCTION DEPTH FROM PREVIOUS STRESS PERIOD. CURRENT PERIOD IS:      33

 USING EXTINCTION WATER CONTENT FROM PREVIOUS STRESS PERIOD. CURRENT PERIOD IS:      33

 USING AIR ENTRY PRESSURE FROM PREVIOUS STRESS PERIOD. CURRENT PERIOD IS:      33

 USING ROOT PRESSURE HEAD FROM PREVIOUS STRESS PERIOD. CURRENT PERIOD IS:      33

 USING ROOT ACTIVITY FROM PREVIOUS STRESS PERIOD. CURRENT PERIOD IS:      33

 PROCESSING AG STRESS PERIOD DATA

 READING AG STRESS PERIOD DATA

 READING IRRIGATION SEGMENT

 READING IRRIGATION WELL

 READING SUPPLEMENTAL WELL

 NO IRRPOND OR REUSING IRRPOND DATA FROM LAST STRESS PERIOD

 END PROCESSING AG STRESS PERIOD DATA OPTIONS
 
 SOLVING FOR HEAD 
                                                   Max.-Head-Change                         Max.-Flux-Residual
  Residual-Control   Outer-Iter.   Inner-Iter.     Column Row Layer    Maximum-Head-Change  Column Row Layer    Maximum-Flux-Residual          L2-NORM 
          0                 1           2             4    7     1      -0.8834315573E-01       4    7    1        -0.4645794658E+01      0.1024713369E+02
          0                 2           2             4    7     1       0.8593208218E-02       4    7    1         0.4645678770E+00      0.1024705049E+01
          0                 3           2             4    7     1      -0.5851673027E-03       4    7    1        -0.3251987508E-01      0.7172944416E-01
          0                 4           1             4    7     1       0.2328434707E-04       4    7    1         0.1330064232E-02      0.2933738484E-02

    ------------------------------------------------
       NWT REQUIRED            4 OUTER ITERATIONS 
       AND A TOTAL OF          7 INNER ITERATIONS.
    ------------------------------------------------

 NO OUTPUT CONTROL FOR STRESS PERIOD   33   TIME STEP    1
 
 SOLVING FOR HEAD 
                                                   Max.-Head-Change                         Max.-Flux-Residual
  Residual-Control   Outer-Iter.   Inner-Iter.     Column Row Layer    Maximum-Head-Change  Column Row Layer    Maximum-Flux-Residual          L2-NORM 
          0                 1           2             4    7     1      -0.8729658852E-01       4    7    1        -0.4590033473E+01      0.1019235198E+02
          0                 2           2             4    7     1       0.8491410730E-02       4    7    1         0.4589920956E+00      0.1019214262E+01
          0                 3           2             4    7     1      -0.5782352230E-03       4    7    1        -0.3212956704E-01      0.7134390408E-01
          0                 4           1             4    7     1       0.2300851354E-04       4    7    1         0.1314100632E-02      0.2917892585E-02

    ------------------------------------------------
       NWT REQUIRED            4 OUTER ITERATIONS 
       AND A TOTAL OF          7 INNER ITERATIONS.
    ------------------------------------------------

 NO OUTPUT CONTROL FOR STRESS PERIOD   33   TIME STEP    2
 
 SOLVING FOR HEAD 
                                                   Max.-Head-Change                         Max.-Flux-Residual
  Residual-Control   Outer-Iter.   Inner-Iter.     Column Row Layer    Maximum-Head-Change  Column Row Layer    Maximum-Flux-Residual          L2-NORM 
          0                 1           2             4    7     1      -0.8627578517E-01       4    7    1        -0.4535652208E+01      0.1012943074E+02
          0                 2           2             4    7     1       0.8392119183E-02       4    7    1         0.4535542940E+00      0.1012924067E+01
          0                 3           2             4    7     1      -0.5714737898E-03       4    7    1        -0.3174891768E-01      0.7090374103E-01
          0                 4           1             4    7     1       0.2273947024E-04       4    7    1         0.1298532068E-02      0.2899892254E-02

    ------------------------------------------------
       NWT REQUIRED            4 OUTER ITERATIONS 
       AND A TOTAL OF          7 INNER ITERATIONS.
    ------------------------------------------------

 NO OUTPUT CONTROL FOR STRESS PERIOD   33   TIME STEP    3
 
 SOLVING FOR HEAD 
                                                   Max.-Head-Change                         Max.-Flux-Residual
  Residual-Control   Outer-Iter.   Inner-Iter.     Column Row Layer    Maximum-Head-Change  Column Row Layer    Maximum-Flux-Residual          L2-NORM 
          0                 1           2             4    7     1      -0.8528004484E-01       4    7    1        -0.4482614068E+01      0.1006796259E+02
          0                 2           2             4    7     1       0.8295265409E-02       4    7    1         0.4482507929E+00      0.1006778952E+01
          0                 3           2             4    7     1      -0.5648783619E-03       4    7    1        -0.3137766949E-01      0.7047374842E-01
          0                 4           1             4    7     1       0.2247703238E-04       4    7    1         0.1283348012E-02      0.2882321433E-02

    ------------------------------------------------
       NWT REQUIRED            4 OUTER ITERATIONS 
       AND A TOTAL OF          7 INNER ITERATIONS.
    ------------------------------------------------

 NO OUTPUT CONTROL FOR STRESS PERIOD   33   TIME STEP    4
 
 SOLVING FOR HEAD 
                                                   Max.-Head-Change                         Max.-Flux-Residual
  Residual-Control   Outer-Iter.   Inner-Iter.     Column Row Layer    Maximum-Head-Change  Column Row Layer    Maximum-Flux-Residual          L2-NORM 
          0                 1           2             4    7     1      -0.8430854245E-01       4    7    1        -0.4430875498E+01      0.1000785663E+02
          0                 2           2             4    7     1       0.8200769156E-02       4    7    1         0.4430772375E+00      0.1000769837E+01
          0                 3           2             4    7     1      -0.5584434740E-03       4    7    1        -0.3101551760E-01      0.7005323590E-01
          0                 4           1             4    7     1       0.2222098192E-04       4    7    1         0.1268535987E-02      0.2865152822E-02

    ------------------------------------------------
       NWT REQUIRED            4 OUTER ITERATIONS 
       AND A TOTAL OF          7 INNER ITERATIONS.
    ------------------------------------------------

 NO OUTPUT CONTROL FOR STRESS PERIOD   33   TIME STEP    5
 
 SOLVING FOR HEAD 
                                                   Max.-Head-Change                         Max.-Flux-Residual
  Residual-Control   Outer-Iter.   Inner-Iter.     Column Row Layer    Maximum-Head-Change  Column Row Layer    Maximum-Flux-Residual          L2-NORM 
          0                 1           2             4    7     1      -0.8336060659E-01       4    7    1        -0.4380400925E+01      0.9949059764E+01
          0                 2           2             4    7     1       0.8108565122E-02       4    7    1         0.4380300706E+00      0.9948913978E+00
          0                 3           2             4    7     1      -0.5521646792E-03       4    7    1        -0.3066221301E-01      0.6964182895E-01
          0                 4           1             4    7     1       0.2197114317E-04       4    7    1         0.1254085827E-02      0.2848300825E-02

    ------------------------------------------------
       NWT REQUIRED            4 OUTER ITERATIONS 
       AND A TOTAL OF          7 INNER ITERATIONS.
    ------------------------------------------------

 NO OUTPUT CONTROL FOR STRESS PERIOD   33   TIME STEP    6
 
 SOLVING FOR HEAD 
                                                   Max.-Head-Change                         Max.-Flux-Residual
  Residual-Control   Outer-Iter.   Inner-Iter.     Column Row Layer    Maximum-Head-Change  Column Row Layer    Maximum-Flux-Residual          L2-NORM 
          0                 1           2             4    7     1      -0.8243531445E-01       4    7    1        -0.4331141119E+01      0.9891505363E+01
          0                 2           2             4    7     1       0.8018563549E-02       4    7    1         0.4331043699E+00      0.9891370485E+00
          0                 3           2             4    7     1      -0.5460358653E-03       4    7    1        -0.3031741116E-01      0.6923911587E-01
          0                 4           1             4    7     1       0.2172727183E-04       4    7    1         0.1239983414E-02      0.2831851378E-02

    ------------------------------------------------
       NWT REQUIRED            4 OUTER ITERATIONS 
       AND A TOTAL OF          7 INNER ITERATIONS.
    ------------------------------------------------

 NO OUTPUT CONTROL FOR STRESS PERIOD   33   TIME STEP    7
 
 SOLVING FOR HEAD 
                                                   Max.-Head-Change                         Max.-Flux-Residual
  Residual-Control   Outer-Iter.   Inner-Iter.     Column Row Layer    Maximum-Head-Change  Column Row Layer    Maximum-Flux-Residual          L2-NORM 
          0                 1           2             4    7     1      -0.8153216741E-01       4    7    1        -0.4283069851E+01      0.9835141356E+01
          0                 2           2             4    7     1       0.7930715938E-02       4    7    1         0.4282975126E+00      0.9835016196E+00
          0                 3           2             4    7     1      -0.5400537299E-03       4    7    1        -0.2998092845E-01      0.6884471095E-01
          0                 4           1             4    7     1       0.2148923746E-04       4    7    1         0.1226221264E-02      0.2815718273E-02

    ------------------------------------------------
       NWT REQUIRED            4 OUTER ITERATIONS 
       AND A TOTAL OF          7 INNER ITERATIONS.
    ------------------------------------------------

 NO OUTPUT CONTROL FOR STRESS PERIOD   33   TIME STEP    8
 
 SOLVING FOR HEAD 
                                                   Max.-Head-Change                         Max.-Flux-Residual
  Residual-Control   Outer-Iter.   Inner-Iter.     Column Row Layer    Maximum-Head-Change  Column Row Layer    Maximum-Flux-Residual          L2-NORM 
          0                 1           2             4    7     1      -0.8065040931E-01       4    7    1        -0.4236146851E+01      0.9779921160E+01
          0                 2           2             4    7     1       0.7844948741E-02       4    7    1         0.4236054722E+00      0.9779804130E+00
          0                 3           2             4    7     1      -0.5342132643E-03       4    7    1        -0.2965248303E-01      0.6845827162E-01
          0                 4           1             4    7     1       0.2125683996E-04       4    7    1         0.1212787834E-02      0.2799906833E-02

    ------------------------------------------------
       NWT REQUIRED            4 OUTER ITERATIONS 
       AND A TOTAL OF          7 INNER ITERATIONS.
    ------------------------------------------------

 NO OUTPUT CONTROL FOR STRESS PERIOD   33   TIME STEP    9
 
 SOLVING FOR HEAD 
                                                   Max.-Head-Change                         Max.-Flux-Residual
  Residual-Control   Outer-Iter.   Inner-Iter.     Column Row Layer    Maximum-Head-Change  Column Row Layer    Maximum-Flux-Residual          L2-NORM 
          0                 1           2             4    7     1      -0.7978917687E-01       4    7    1        -0.4190325706E+01      0.9725791865E+01
          0                 2           2             4    7     1       0.7761177994E-02       4    7    1         0.4190236079E+00      0.9725682839E+00
          0                 3           2             4    7     1      -0.5285087509E-03       4    7    1        -0.2933175003E-01      0.6807949532E-01
          0                 4           1             4    7     1       0.2102985197E-04       4    7    1         0.1199669844E-02      0.2784434883E-02

    ------------------------------------------------
       NWT REQUIRED            4 OUTER ITERATIONS 
       AND A TOTAL OF          7 INNER ITERATIONS.
    ------------------------------------------------

 NO OUTPUT CONTROL FOR STRESS PERIOD   33   TIME STEP   10
 
 SOLVING FOR HEAD 
                                                   Max.-Head-Change                         Max.-Flux-Residual
  Residual-Control   Outer-Iter.   Inner-Iter.     Column Row Layer    Maximum-Head-Change  Column Row Layer    Maximum-Flux-Residual          L2-NORM 
          0                 1           2             4    7     1      -0.7894790522E-01       4    7    1        -0.4145576065E+01      0.9672732176E+01
          0                 2           2             4    7     1       0.7679348753E-02       4    7    1         0.4145488848E+00      0.9672629605E+00
          0                 3           2             4    7     1      -0.5229364484E-03       4    7    1        -0.2901851700E-01      0.6770817693E-01
          0                 4           1             4    7     1       0.2080812507E-04       4    7    1         0.1186858618E-02      0.2769244086E-02

    ------------------------------------------------
       NWT REQUIRED            4 OUTER ITERATIONS 
       AND A TOTAL OF          7 INNER ITERATIONS.
    ------------------------------------------------

 NO OUTPUT CONTROL FOR STRESS PERIOD   33   TIME STEP   11
 
 SOLVING FOR HEAD 
                                                   Max.-Head-Change                         Max.-Flux-Residual
  Residual-Control   Outer-Iter.   Inner-Iter.     Column Row Layer    Maximum-Head-Change  Column Row Layer    Maximum-Flux-Residual          L2-NORM 
          0                 1           2             4    7     1      -0.7812603717E-01       4    7    1        -0.4101868633E+01      0.9620680240E+01
          0                 2           2             4    7     1       0.7599406824E-02       4    7    1         0.4101783739E+00      0.9620583307E+00
          0                 3           2             4    7     1      -0.5174926660E-03       4    7    1        -0.2871257891E-01      0.6734386374E-01
          0                 4           1             4    7     1       0.2059151226E-04       4    7    1         0.1174345739E-02      0.2754347899E-02

    ------------------------------------------------
       NWT REQUIRED            4 OUTER ITERATIONS 
       AND A TOTAL OF          7 INNER ITERATIONS.
    ------------------------------------------------

 NO OUTPUT CONTROL FOR STRESS PERIOD   33   TIME STEP   12
 
 SOLVING FOR HEAD 
                                                   Max.-Head-Change                         Max.-Flux-Residual
  Residual-Control   Outer-Iter.   Inner-Iter.     Column Row Layer    Maximum-Head-Change  Column Row Layer    Maximum-Flux-Residual          L2-NORM 
          0                 1           2             4    7     1      -0.7732290479E-01       4    7    1        -0.4059167316E+01      0.9569618975E+01
          0                 2           2             4    7     1       0.7521287240E-02       4    7    1         0.4059084660E+00      0.9569527085E+00
          0                 3           2             4    7     1      -0.5121729796E-03       4    7    1        -0.2841368310E-01      0.6698651562E-01
          0                 4           1             4    7     1       0.2037983693E-04       4    7    1         0.1162120892E-02      0.2739738414E-02

    ------------------------------------------------
       NWT REQUIRED            4 OUTER ITERATIONS 
       AND A TOTAL OF          7 INNER ITERATIONS.
    ------------------------------------------------

 NO OUTPUT CONTROL FOR STRESS PERIOD   33   TIME STEP   13
 
 SOLVING FOR HEAD 
                                                   Max.-Head-Change                         Max.-Flux-Residual
  Residual-Control   Outer-Iter.   Inner-Iter.     Column Row Layer    Maximum-Head-Change  Column Row Layer    Maximum-Flux-Residual          L2-NORM 
          0                 1           2             4    7     1      -0.7653773182E-01       4    7    1        -0.4017430284E+01      0.9519503787E+01
          0                 2           2             4    7     1       0.7444914500E-02       4    7    1         0.4017349786E+00      0.9519416788E+00
          0                 3           2             4    7     1      -0.5069722481E-03       4    7    1        -0.2812153682E-01      0.6663579379E-01
          0                 4           1             4    7     1       0.2017289507E-04       4    7    1         0.1150172097E-02      0.2725400798E-02

    ------------------------------------------------
       NWT REQUIRED            4 OUTER ITERATIONS 
       AND A TOTAL OF          7 INNER ITERATIONS.
    ------------------------------------------------

 NO OUTPUT CONTROL FOR STRESS PERIOD   33   TIME STEP   14
 
 SOLVING FOR HEAD 
                                                   Max.-Head-Change                         Max.-Flux-Residual
  Residual-Control   Outer-Iter.   Inner-Iter.     Column Row Layer    Maximum-Head-Change  Column Row Layer    Maximum-Flux-Residual          L2-NORM 
          0                 1           2             4    7     1      -0.7577016782E-01       4    7    1        -0.3976638881E+01      0.9470310793E+01
          0                 2           2             4    7     1       0.7370254519E-02       4    7    1         0.3976560462E+00      0.9470227713E+00
          0                 3           2             4    7     1      -0.5018881503E-03       4    7    1        -0.2783600946E-01      0.6629148420E-01
          0                 4           1             4    7     1       0.1997059435E-04       4    7    1         0.1138494033E-02      0.2711311191E-02

    ------------------------------------------------
       NWT REQUIRED            4 OUTER ITERATIONS 
       AND A TOTAL OF          7 INNER ITERATIONS.
    ------------------------------------------------

 NO OUTPUT CONTROL FOR STRESS PERIOD   33   TIME STEP   15
 
 SOLVING FOR HEAD 
                                                   Max.-Head-Change                         Max.-Flux-Residual
  Residual-Control   Outer-Iter.   Inner-Iter.     Column Row Layer    Maximum-Head-Change  Column Row Layer    Maximum-Flux-Residual          L2-NORM 
          0                 1           2             4    7     1      -0.7501960941E-01       4    7    1        -0.3936760537E+01      0.9422020242E+01
          0                 2           2             4    7     1       0.7297248607E-02       4    7    1         0.3936684124E+00      0.9421940738E+00
          0                 3           2             4    7     1      -0.4969166894E-03       4    7    1        -0.2755687307E-01      0.6595348174E-01
          0                 4           1             4    7     1       0.1977277520E-04       4    7    1         0.1127077339E-02      0.2697484306E-02

    ------------------------------------------------
       NWT REQUIRED            4 OUTER ITERATIONS 
       AND A TOTAL OF          7 INNER ITERATIONS.
    ------------------------------------------------

 NO OUTPUT CONTROL FOR STRESS PERIOD   33   TIME STEP   16
 
 SOLVING FOR HEAD 
                                                   Max.-Head-Change                         Max.-Flux-Residual
  Residual-Control   Outer-Iter.   Inner-Iter.     Column Row Layer    Maximum-Head-Change  Column Row Layer    Maximum-Flux-Residual          L2-NORM 
          0                 1           2             4    7     1      -0.7428533909E-01       4    7    1        -0.3897756772E+01      0.9374590552E+01
          0                 2           2             4    7     1       0.7225826979E-02       4    7    1         0.3897682294E+00      0.9374514481E+00
          0                 3           2             4    7     1      -0.4920531132E-03       4    7    1        -0.2728385830E-01      0.6562153669E-01
          0                 4           1             4    7     1       0.1957924927E-04       4    7    1         0.1115911030E-02      0.2683916922E-02

    ------------------------------------------------
       NWT REQUIRED            4 OUTER ITERATIONS 
       AND A TOTAL OF          7 INNER ITERATIONS.
    ------------------------------------------------

 NO OUTPUT CONTROL FOR STRESS PERIOD   33   TIME STEP   17
 
 SOLVING FOR HEAD 
                                                   Max.-Head-Change                         Max.-Flux-Residual
  Residual-Control   Outer-Iter.   Inner-Iter.     Column Row Layer    Maximum-Head-Change  Column Row Layer    Maximum-Flux-Residual          L2-NORM 
          0                 1           2             4    7     1      -0.7356706879E-01       4    7    1        -0.3859611967E+01      0.9328008949E+01
          0                 2           2             4    7     1       0.7155961617E-02       4    7    1         0.3859539354E+00      0.9327935739E+00
          0                 3           2             4    7     1      -0.4872955141E-03       4    7    1        -0.2701685585E-01      0.6529549628E-01
          0                 4           1             4    7     1       0.1938993989E-04       4    7    1         0.1104990617E-02      0.2670581261E-02

    ------------------------------------------------
       NWT REQUIRED            4 OUTER ITERATIONS 
       AND A TOTAL OF          7 INNER ITERATIONS.
    ------------------------------------------------

 NO OUTPUT CONTROL FOR STRESS PERIOD   33   TIME STEP   18
 
 SOLVING FOR HEAD 
                                                   Max.-Head-Change                         Max.-Flux-Residual
  Residual-Control   Outer-Iter.   Inner-Iter.     Column Row Layer    Maximum-Head-Change  Column Row Layer    Maximum-Flux-Residual          L2-NORM 
          0                 1           2             4    7     1      -0.7286411511E-01       4    7    1        -0.3822289601E+01      0.9282240460E+01
          0                 2           2             4    7     1       0.7087586047E-02       4    7    1         0.3822218789E+00      0.9282169666E+00
          0                 3           2             4    7     1      -0.4826393655E-03       4    7    1        -0.2675561008E-01      0.6497512030E-01
          0                 4           1             4    7     1       0.1920466769E-04       4    7    1         0.1094305667E-02      0.2657497530E-02

    ------------------------------------------------
       NWT REQUIRED            4 OUTER ITERATIONS 
       AND A TOTAL OF          7 INNER ITERATIONS.
    ------------------------------------------------

 NO OUTPUT CONTROL FOR STRESS PERIOD   33   TIME STEP   19
 
 SOLVING FOR HEAD 
                                                   Max.-Head-Change                         Max.-Flux-Residual
  Residual-Control   Outer-Iter.   Inner-Iter.     Column Row Layer    Maximum-Head-Change  Column Row Layer    Maximum-Flux-Residual          L2-NORM 
          0                 1           2             4    7     1      -0.7217596642E-01       4    7    1        -0.3785761434E+01      0.9237276235E+01
          0                 2           2             4    7     1       0.7020650508E-02       4    7    1         0.3785692360E+00      0.9237208147E+00
          0                 3           2             4    7     1      -0.4780812779E-03       4    7    1        -0.2649992330E-01      0.6466042495E-01
          0                 4           1             4    7     1       0.1902329705E-04       4    7    1         0.1083848063E-02      0.2644603842E-02

    ------------------------------------------------
       NWT REQUIRED            4 OUTER ITERATIONS 
       AND A TOTAL OF          7 INNER ITERATIONS.
    ------------------------------------------------

 NO OUTPUT CONTROL FOR STRESS PERIOD   33   TIME STEP   20
 
 SOLVING FOR HEAD 
                                                   Max.-Head-Change                         Max.-Flux-Residual
  Residual-Control   Outer-Iter.   Inner-Iter.     Column Row Layer    Maximum-Head-Change  Column Row Layer    Maximum-Flux-Residual          L2-NORM 
          0                 1           2             4    7     1      -0.7150225325E-01       4    7    1        -0.3750008127E+01      0.9193081737E+01
          0                 2           2             4    7     1       0.6955119063E-02       4    7    1         0.3749940731E+00      0.9193015931E+00
          0                 3           2             4    7     1      -0.4736188061E-03       4    7    1        -0.2624966024E-01      0.6435110023E-01
          0                 4           1             4    7     1       0.1884573138E-04       4    7    1         0.1073612315E-02      0.2631957333E-02

    ------------------------------------------------
       NWT REQUIRED            4 OUTER ITERATIONS 
       AND A TOTAL OF          7 INNER ITERATIONS.
    ------------------------------------------------

 NO OUTPUT CONTROL FOR STRESS PERIOD   33   TIME STEP   21
 
 SOLVING FOR HEAD 
                                                   Max.-Head-Change                         Max.-Flux-Residual
  Residual-Control   Outer-Iter.   Inner-Iter.     Column Row Layer    Maximum-Head-Change  Column Row Layer    Maximum-Flux-Residual          L2-NORM 
          0                 1           2             4    7     1      -0.7084249295E-01       4    7    1        -0.3715003331E+01      0.9149649943E+01
          0                 2           2             4    7     1       0.6890944768E-02       4    7    1         0.3714937556E+00      0.9149586181E+00
          0                 3           2             4    7     1      -0.4692487507E-03       4    7    1        -0.2600463636E-01      0.6404709154E-01
          0                 4           1             4    7     1       0.1867184299E-04       4    7    1         0.1063590819E-02      0.2619519237E-02

    ------------------------------------------------
       NWT REQUIRED            4 OUTER ITERATIONS 
       AND A TOTAL OF          7 INNER ITERATIONS.
    ------------------------------------------------

 NO OUTPUT CONTROL FOR STRESS PERIOD   33   TIME STEP   22
 
 SOLVING FOR HEAD 
                                                   Max.-Head-Change                         Max.-Flux-Residual
  Residual-Control   Outer-Iter.   Inner-Iter.     Column Row Layer    Maximum-Head-Change  Column Row Layer    Maximum-Flux-Residual          L2-NORM 
          0                 1           2             4    7     1      -0.7019621920E-01       4    7    1        -0.3680722020E+01      0.9106945767E+01
          0                 2           2             4    7     1       0.6828082265E-02       4    7    1         0.3680657810E+00      0.9106883855E+00
          0                 3           2             4    7     1      -0.4649680248E-03       4    7    1        -0.2576467655E-01      0.6374817838E-01
          0                 4           1             4    7     1       0.1850150906E-04       4    7    1         0.1053776456E-02      0.2607293706E-02

    ------------------------------------------------
       NWT REQUIRED            4 OUTER ITERATIONS 
       AND A TOTAL OF          7 INNER ITERATIONS.
    ------------------------------------------------

 NO OUTPUT CONTROL FOR STRESS PERIOD   33   TIME STEP   23
 
 SOLVING FOR HEAD 
                                                   Max.-Head-Change                         Max.-Flux-Residual
  Residual-Control   Outer-Iter.   Inner-Iter.     Column Row Layer    Maximum-Head-Change  Column Row Layer    Maximum-Flux-Residual          L2-NORM 
          0                 1           2             4    7     1      -0.6956311766E-01       4    7    1        -0.3647147202E+01      0.9064968931E+01
          0                 2           2             4    7     1       0.6766500980E-02       4    7    1         0.3647084503E+00      0.9064908722E+00
          0                 3           2             4    7     1      -0.4607745458E-03       4    7    1        -0.2552966187E-01      0.6345436103E-01
          0                 4           1             4    7     1       0.1833464657E-04       4    7    1         0.1044164351E-02      0.2595288081E-02

    ------------------------------------------------
       NWT REQUIRED            4 OUTER ITERATIONS 
       AND A TOTAL OF          7 INNER ITERATIONS.
    ------------------------------------------------

 NO OUTPUT CONTROL FOR STRESS PERIOD   33   TIME STEP   24
 
 SOLVING FOR HEAD 
                                                   Max.-Head-Change                         Max.-Flux-Residual
  Residual-Control   Outer-Iter.   Inner-Iter.     Column Row Layer    Maximum-Head-Change  Column Row Layer    Maximum-Flux-Residual          L2-NORM 
          0                 1           2             4    7     1      -0.6894262345E-01       4    7    1        -0.3614248201E+01      0.9023688052E+01
          0                 2           2             4    7     1       0.6706145972E-02       4    7    1         0.3614186965E+00      0.9023629502E+00
          0                 3           2             4    7     1      -0.4566645722E-03       4    7    1        -0.2529937761E-01      0.6316541809E-01
          0                 4           1             4    7     1       0.1817110701E-04       4    7    1         0.1034745719E-02      0.2583460328E-02

    ------------------------------------------------
       NWT REQUIRED            4 OUTER ITERATIONS 
       AND A TOTAL OF          7 INNER ITERATIONS.
    ------------------------------------------------

 NO OUTPUT CONTROL FOR STRESS PERIOD   33   TIME STEP   25
 
 SOLVING FOR HEAD 
                                                   Max.-Head-Change                         Max.-Flux-Residual
  Residual-Control   Outer-Iter.   Inner-Iter.     Column Row Layer    Maximum-Head-Change  Column Row Layer    Maximum-Flux-Residual          L2-NORM 
          0                 1           2             4    7     1      -0.6833445593E-01       4    7    1        -0.3582010103E+01      0.8983097023E+01
          0                 2           2             4    7     1       0.6646989942E-02       4    7    1         0.3581950280E+00      0.8983039929E+00
          0                 3           2             4    7     1      -0.4526362454E-03       4    7    1        -0.2507371938E-01      0.6288128734E-01
          0                 4           1             4    7     1       0.1801081612E-04       4    7    1         0.1025516284E-02      0.2571849635E-02

    ------------------------------------------------
       NWT REQUIRED            4 OUTER ITERATIONS 
       AND A TOTAL OF          7 INNER ITERATIONS.
    ------------------------------------------------

 NO OUTPUT CONTROL FOR STRESS PERIOD   33   TIME STEP   26
 
 SOLVING FOR HEAD 
                                                   Max.-Head-Change                         Max.-Flux-Residual
  Residual-Control   Outer-Iter.   Inner-Iter.     Column Row Layer    Maximum-Head-Change  Column Row Layer    Maximum-Flux-Residual          L2-NORM 
          0                 1           2             4    7     1      -0.6773808193E-01       4    7    1        -0.3550403985E+01      0.8943162217E+01
          0                 2           2             4    7     1       0.6588981034E-02       4    7    1         0.3550345529E+00      0.8943106684E+00
          0                 3           2             4    7     1      -0.4486860343E-03       4    7    1        -0.2485248474E-01      0.6260177298E-01
          0                 4           1             4    7     1       0.1785363379E-04       4    7    1         0.1016467793E-02      0.2560415168E-02

    ------------------------------------------------
       NWT REQUIRED            4 OUTER ITERATIONS 
       AND A TOTAL OF          7 INNER ITERATIONS.
    ------------------------------------------------

 NO OUTPUT CONTROL FOR STRESS PERIOD   33   TIME STEP   27
 
 SOLVING FOR HEAD 
                                                   Max.-Head-Change                         Max.-Flux-Residual
  Residual-Control   Outer-Iter.   Inner-Iter.     Column Row Layer    Maximum-Head-Change  Column Row Layer    Maximum-Flux-Residual          L2-NORM 
          0                 1           2             4    7     1      -0.6715338650E-01       4    7    1        -0.3519423752E+01      0.8903883749E+01
          0                 2           2             4    7     1       0.6532108066E-02       4    7    1         0.3519366618E+00      0.8903829356E+00
          0                 3           2             4    7     1      -0.4448131771E-03       4    7    1        -0.2463563104E-01      0.6232682262E-01
          0                 4           1             4    7     1       0.1769952905E-04       4    7    1         0.1007598466E-02      0.2549164647E-02

    ------------------------------------------------
       NWT REQUIRED            4 OUTER ITERATIONS 
       AND A TOTAL OF          7 INNER ITERATIONS.
    ------------------------------------------------

 NO OUTPUT CONTROL FOR STRESS PERIOD   33   TIME STEP   28
 
 SOLVING FOR HEAD 
                                                   Max.-Head-Change                         Max.-Flux-Residual
  Residual-Control   Outer-Iter.   Inner-Iter.     Column Row Layer    Maximum-Head-Change  Column Row Layer    Maximum-Flux-Residual          L2-NORM 
          0                 1           2             4    7     1      -0.6657986418E-01       4    7    1        -0.3489041894E+01      0.8865244906E+01
          0                 2           2             4    7     1       0.6476321874E-02       4    7    1         0.3488986039E+00      0.8865191796E+00
          0                 3           2             4    7     1      -0.4410143256E-03       4    7    1        -0.2442296568E-01      0.6205637057E-01
          0                 4           1             4    7     1       0.1754836927E-04       4    7    1         0.9989004463E-03      0.2538104760E-02

    ------------------------------------------------
       NWT REQUIRED            4 OUTER ITERATIONS 
       AND A TOTAL OF          7 INNER ITERATIONS.
    ------------------------------------------------

 NO OUTPUT CONTROL FOR STRESS PERIOD   33   TIME STEP   29
 
 SOLVING FOR HEAD 
                                                   Max.-Head-Change                         Max.-Flux-Residual
  Residual-Control   Outer-Iter.   Inner-Iter.     Column Row Layer    Maximum-Head-Change  Column Row Layer    Maximum-Flux-Residual          L2-NORM 
          0                 1           2             4    7     1      -0.6601729500E-01       4    7    1        -0.3459246566E+01      0.8827231203E+01
          0                 2           2             4    7     1       0.6421601063E-02       4    7    1         0.3459191949E+00      0.8827179294E+00
          0                 3           2             4    7     1      -0.4372880235E-03       4    7    1        -0.2421440579E-01      0.6179028920E-01
          0                 4           1             4    7     1       0.1740009632E-04       4    7    1         0.9903703356E-03      0.2527226331E-02

    ------------------------------------------------
       NWT REQUIRED            4 OUTER ITERATIONS 
       AND A TOTAL OF          7 INNER ITERATIONS.
    ------------------------------------------------

 NO OUTPUT CONTROL FOR STRESS PERIOD   33   TIME STEP   30



 STREAM LISTING     PERIOD     33   STEP       30

 LAYER ROW COL. STREAM  RCH.  FLOW INTO     FLOW TO   FLOW OUT OF   OVRLND.     DIRECT     STREAM       STREAM     STREAM     STREAM   STREAMBED  STREAMBED
                SEG.NO.  NO.  STRM. RCH.    AQUIFER    STRM. RCH.    RUNOFF     PRECIP       ET          HEAD       DEPTH      WIDTH   CONDCTNC.   GRADIENT

   1    1    1     1     1    2.2874E+01  2.3513E-01   2.2639E+01  0.000E+00  0.000E+00  0.000E+00  1.09419E+03  1.146E+00  1.260E+01  5.672E-02  1.382E+00
   1    2    2     1     2    2.2639E+01  3.6351E-01   2.2276E+01  0.000E+00  0.000E+00  0.000E+00  1.08920E+03  1.141E+00  1.254E+01  8.778E-02  1.380E+00
   1    3    3     1     3    2.2276E+01  3.0939E-01   2.1966E+01  0.000E+00  0.000E+00  0.000E+00  1.08355E+03  1.136E+00  1.247E+01  7.481E-02  1.379E+00
   1    3    4     1     4    2.1966E+01  2.8439E-01   2.1682E+01  0.000E+00  0.000E+00  0.000E+00  1.07854E+03  1.131E+00  1.240E+01  6.885E-02  1.377E+00
   1    4    5     2     1    1.9682E+01  3.1521E-01   1.9367E+01  0.000E+00  0.000E+00  0.000E+00  1.07298E+03  1.041E+00  1.200E+01  7.800E-02  1.347E+00
   1    5    6     2     2    1.9367E+01  2.4193E-01   1.9125E+01  0.000E+00  0.000E+00  0.000E+00  1.06754E+03  1.032E+00  1.200E+01  6.000E-02  1.344E+00
   1    6    6     2     3    1.9125E+01  2.4146E-01   1.8883E+01  0.000E+00  0.000E+00  0.000E+00  1.06282E+03  1.024E+00  1.200E+01  6.000E-02  1.341E+00
   1    7    6     2     4    1.8883E+01  2.4099E-01   1.8642E+01  0.000E+00  0.000E+00  0.000E+00  1.05809E+03  1.017E+00  1.200E+01  6.000E-02  1.339E+00
   1    8    6     2     5    1.8642E+01  2.4052E-01   1.8402E+01  0.000E+00  0.000E+00  0.000E+00  1.05337E+03  1.009E+00  1.200E+01  6.000E-02  1.336E+00
   1    3    5     3     1    2.0000E+00  2.8252E-01   1.7175E+00  0.000E+00  0.000E+00  0.000E+00  1.07555E+03  1.909E+00  9.636E+00  7.227E-02  1.955E+00
   1    3    6     3     2    1.7175E+00  2.4905E-01   1.4684E+00  0.000E+00  0.000E+00  0.000E+00  1.07264E+03  1.727E+00  8.909E+00  6.682E-02  1.864E+00
   1    3    7     3     3    1.4684E+00  1.9718E-01   1.2712E+00  0.000E+00  0.000E+00  0.000E+00  1.06987E+03  1.555E+00  8.218E+00  5.547E-02  1.777E+00
   1    4    8     3     4    1.2712E+00  2.2567E-01   1.0456E+00  0.000E+00  0.000E+00  0.000E+00  1.06682E+03  1.364E+00  7.455E+00  6.709E-02  1.682E+00
   1    5    8     3     5    1.0456E+00  1.5790E-01   8.8768E-01  0.000E+00  0.000E+00  0.000E+00  1.06362E+03  1.164E+00  6.655E+00  4.991E-02  1.582E+00
   1    6    8     3     6    8.8768E-01  5.5980E-02   8.3170E-01  0.000E+00  0.000E+00  0.000E+00  1.06158E+03  1.036E+00  6.145E+00  1.844E-02  1.518E+00
   1    5   10     4     1    1.0000E+01  9.0919E-02   9.9091E+00  0.000E+00  0.000E+00  0.000E+00  1.07836E+03  6.368E-01  1.000E+01  2.500E-02  1.212E+00
   1    5    9     4     2    9.9091E+00  1.8158E-01   9.7275E+00  0.000E+00  0.000E+00  0.000E+00  1.07154E+03  6.315E-01  1.000E+01  5.000E-02  1.211E+00
   1    6    8     4     3    9.7275E+00  1.2689E-01   9.6006E+00  0.000E+00  0.000E+00  0.000E+00  1.06381E+03  6.256E-01  1.000E+01  3.500E-02  1.209E+00
   1    6    8     5     1    1.0432E+01  2.2686E-01   1.0205E+01  0.000E+00  0.000E+00  0.000E+00  1.05868E+03  6.790E-01  1.542E+01  6.166E-02  1.226E+00
   1    7    7     5     2    1.0205E+01  2.7894E-01   9.9265E+00  0.000E+00  0.000E+00  0.000E+00  1.05417E+03  6.732E-01  1.519E+01  7.594E-02  1.224E+00
   1    8    7     5     3    9.9265E+00  1.9221E-01   9.7343E+00  0.000E+00  0.000E+00  0.000E+00  1.04992E+03  6.676E-01  1.497E+01  5.241E-02  1.223E+00
   1    8    6     5     4    9.7343E+00  1.3577E-01   9.5985E+00  0.000E+00  0.000E+00  0.000E+00  1.04691E+03  6.637E-01  1.482E+01  3.706E-02  1.221E+00
   1    9    6     6     1    2.8000E+01  2.5820E-01   2.7742E+01  0.000E+00  0.000E+00  0.000E+00  1.04403E+03  1.303E+00  1.200E+01  6.000E-02  1.434E+00
   1   10    7     6     2    2.7742E+01  2.5777E-01   2.7484E+01  0.000E+00  0.000E+00  0.000E+00  1.03948E+03  1.296E+00  1.200E+01  6.000E-02  1.432E+00
   1   11    7     6     3    2.7484E+01  2.5733E-01   2.7227E+01  0.000E+00  0.000E+00  0.000E+00  1.03493E+03  1.289E+00  1.200E+01  6.000E-02  1.430E+00
   1   12    7     6     4    2.7227E+01  2.5689E-01   2.6970E+01  0.000E+00  0.000E+00  0.000E+00  1.03037E+03  1.282E+00  1.200E+01  6.000E-02  1.427E+00
   1   13    7     6     5    2.6970E+01  1.6126E-02   2.6954E+01  0.000E+00  0.000E+00  0.000E+00  1.02719E+03  1.278E+00  1.200E+01  2.400E-02  2.240E-01
   1   14    9     7     1    1.5000E+02  1.3918E+00   1.4861E+02  0.000E+00  0.000E+00  0.000E+00  1.03987E+03  2.288E+00  5.529E+01  5.593E-01  8.295E-01
   1   13    8     7     2    1.4861E+02  2.0170E+00   1.4659E+02  0.000E+00  0.000E+00  0.000E+00  1.03478E+03  2.279E+00  5.525E+01  6.147E-01  1.094E+00
   1   13    7     7     3    1.4659E+02  1.7716E+00   1.4482E+02  0.000E+00  0.000E+00  0.000E+00  1.02969E+03  2.268E+00  5.521E+01  5.583E-01  1.058E+00
   1   13    6     8     1    1.7177E+02  1.2111E+00   1.7056E+02  0.000E+00  0.000E+00  0.000E+00  1.02483E+03  2.960E+00  4.292E+01  4.373E-01  9.231E-01
   1   13    5     8     2    1.7056E+02  4.3114E-01   1.7013E+02  0.000E+00  0.000E+00  0.000E+00  1.01858E+03  2.954E+00  4.284E+01  4.366E-01  3.292E-01
   1   13    4     8     3    1.7013E+02 -1.6061E+00   1.7174E+02  0.000E+00  0.000E+00  0.000E+00  1.01233E+03  2.958E+00  4.290E+01  4.371E+00 -1.225E-01
   1   13    3     8     4    1.7174E+02 -3.2470E+00   1.7498E+02  0.000E+00  0.000E+00  0.000E+00  1.00610E+03  2.974E+00  4.312E+01  4.394E+00 -2.463E-01
   1   13    2     8     5    1.7498E+02 -2.4825E+00   1.7747E+02  0.000E+00  0.000E+00  0.000E+00  9.99867E+02  2.992E+00  4.339E+01  4.421E+00 -1.872E-01
   1   13    1     8     6    1.7747E+02 -1.9699E+00   1.7944E+02  0.000E+00  0.000E+00  0.000E+00  9.94881E+02  3.006E+00  4.359E+01  2.665E+00 -2.464E-01
   1    8    6     9     1    0.0000E+00  0.0000E+00   0.0000E+00  0.000E+00  0.000E+00  0.000E+00  1.07875E+03  0.000E+00  4.000E+00  0.000E+00  1.000E+00
   1    8    5     9     2    0.0000E+00  0.0000E+00   0.0000E+00  0.000E+00  0.000E+00  0.000E+00  1.07825E+03  0.000E+00  4.000E+00  0.000E+00  1.000E+00





UNSATURATED ZONE PACKAGE VOLUMETRIC BUDGET FOR  TIME STEP    30 STRESS PERIOD   33
  ------------------------------------------------------------------------------



     CUMULATIVE VOLUMES      L**3       RATES FOR THIS TIME STEP      L**3/T
     ------------------                 ------------------------

           IN:                                      IN:
           ---                                      ---
        INFILTRATION =  1243774421.0098          INFILTRATION =          49.5675

          OUT:                                     OUT:
          ----                                     ----
              UZF ET =  1242967502.1452                UZF ET =          49.5675
        UZF RECHARGE =       73224.0000          UZF RECHARGE =       0.0000E+00

            IN - OUT =      733694.8646              IN - OUT =       0.0000E+00

          STORAGE:                                 STORAGE:
          --------                                 --------
      STORAGE CHANGE =      733694.9096        STORAGE CHANGE =       1.3279E-15

 PERCENT DISCREPANCY IS DIFFERENCE BETWEEN IN-OUT MINUS CHANGE IN STORAGE
 DIVIDED BY THE AVERAGE OF IN AND OUT TIMES 100

 PERCENT DISCREPANCY =           0.00     PERCENT DISCREPANCY =           0.00






1
  VOLUMETRIC BUDGET FOR AGRICULTURAL FIELDS AT  END OF TIME STEP   30, STRESS PERIOD  33
  ------------------------------------------------------------------------------

     CUMULATIVE VOLUMES      L**3       RATES FOR THIS TIME STEP      L**3/T
     ------------------                 ------------------------

           IN:                                      IN:
           ---                                      ---
               AG WELLS  =  1172371584.0000                 AG WELLS  =          48.7200
      DIVERSION SEGMENTS =           0.0000        DIVERSION SEGMENTS =           0.0000
       IRRIGATION PONDS  =           0.0000         IRRIGATION PONDS  =           0.0000
           GW IRRIGATION =           0.0000             GW IRRIGATION =           0.0000
           SW IRRIGATION =           0.0000             SW IRRIGATION =           0.0000
        SYSTEM LOSSES GW =           0.0000          SYSTEM LOSSES GW =           0.0000
        SYSTEM LOSSES SW =           0.0000          SYSTEM LOSSES SW =           0.0000

                TOTAL IN =  1172371584.0000                  TOTAL IN =          48.7200

          OUT:                                     OUT:
          ----                                     ----
               AG WELLS  =           0.0000                 AG WELLS  =           0.0000
      DIVERSION SEGMENTS =           0.0000        DIVERSION SEGMENTS =           0.0000
       IRRIGATION PONDS  =           0.0000         IRRIGATION PONDS  =           0.0000
           GW IRRIGATION =  1172371584.0000             GW IRRIGATION =          48.7200
           SW IRRIGATION =           0.0000             SW IRRIGATION =           0.0000
        SYSTEM LOSSES GW =           0.0000          SYSTEM LOSSES GW =           0.0000
        SYSTEM LOSSES SW =           0.0000          SYSTEM LOSSES SW =           0.0000

               TOTAL OUT =  1172371584.0000                 TOTAL OUT =          48.7200

                IN - OUT =           0.0000                  IN - OUT =           0.0000

     PERCENT DISCREPANCY =           0.00         PERCENT DISCREPANCY =           0.00



1
  VOLUMETRIC BUDGET FOR ENTIRE MODEL AT END OF TIME STEP   30, STRESS PERIOD  33
  ------------------------------------------------------------------------------

     CUMULATIVE VOLUMES      L**3       RATES FOR THIS TIME STEP      L**3/T
     ------------------                 ------------------------

           IN:                                      IN:
           ---                                      ---
             STORAGE     =  1456908160.0000               STORAGE     =          45.4303
       CONSTANT HEAD     =           0.0000         CONSTANT HEAD     =           0.0000
     HEAD DEP BOUNDS     =    24292132.0000       HEAD DEP BOUNDS     =           0.2896
      STREAM LEAKAGE     =  1013207296.0000        STREAM LEAKAGE     =          12.7430
        UZF RECHARGE     =       73223.9531          UZF RECHARGE     =           0.0000
               GW ET     =           0.0000                 GW ET     =           0.0000
     SURFACE LEAKAGE     =           0.0000       SURFACE LEAKAGE     =           0.0000
           AG WELLS      =           0.0000             AG WELLS      =           0.0000

                TOTAL IN =  2494480896.0000                  TOTAL IN =          58.4628

          OUT:                                     OUT:
          ----                                     ----
             STORAGE     =   467814944.0000               STORAGE     =           0.1479
       CONSTANT HEAD     =           0.0000         CONSTANT HEAD     =           0.0000
     HEAD DEP BOUNDS     =    24341340.0000       HEAD DEP BOUNDS     =           0.2896
      STREAM LEAKAGE     =   829957120.0000        STREAM LEAKAGE     =           9.3055
        UZF RECHARGE     =           0.0000          UZF RECHARGE     =           0.0000
               GW ET     =           0.0000                 GW ET     =           0.0000
     SURFACE LEAKAGE     =           0.0000       SURFACE LEAKAGE     =           0.0000
           AG WELLS      =  1172371584.0000             AG WELLS      =          48.7200

               TOTAL OUT =  2494484992.0000                 TOTAL OUT =          58.4630

                IN - OUT =       -4096.0000                  IN - OUT =      -1.6403E-04

     PERCENT DISCREPANCY =          -0.00         PERCENT DISCREPANCY =          -0.00






         TIME SUMMARY AT END OF TIME STEP   30 IN STRESS PERIOD   33
                    SECONDS     MINUTES      HOURS       DAYS        YEARS
                    -----------------------------------------------------------
   TIME STEP LENGTH  87667.      1461.1      24.352      1.0147     2.77799E-03
 STRESS PERIOD TIME 2.63000E+06  43833.      730.56      30.440     8.33397E-02
         TOTAL TIME 8.42463E+07 1.40410E+06  23402.      975.07      2.6696    
1
1
                            STRESS PERIOD NO.   34, LENGTH =   2630000.    
                            -----------------------------------------------

                              NUMBER OF TIME STEPS =    30

                               MULTIPLIER FOR DELT =     1.000

                            INITIAL TIME STEP SIZE =   87666.66    

 REUSING NON-PARAMETER GHB CELLS FROM LAST STRESS PERIOD

      2 GHB CELLS

 REUSING STREAM SEGMENT DATA FROM LAST STRESS PERIOD



            AREAL INFILTRATION RATE
 READING ON UNIT   19 WITH FORMAT: (FREE)              

            1           2           3           4           5           6           7           8           9          10
 ........................................................................................................................
   1   1.0000E-10  2.0000E-10   0.000       0.000       0.000       0.000       0.000       0.000       0.000       0.000    
   2   2.0000E-10  1.0000E-10  2.0000E-10   0.000       0.000      8.0000E-10  8.0000E-10  5.0000E-10   0.000       0.000    
   3    0.000      5.0000E-10  1.0000E-10  1.0000E-10  8.0000E-10  8.0000E-10  5.0000E-10  5.0000E-10   0.000       0.000    
   4   8.0000E-10  5.0000E-10  1.0000E-10  1.0000E-10  1.0000E-10  1.0000E-10  1.0000E-10  1.0000E-10  2.0000E-10   0.000    
   5   8.0000E-10  5.0000E-10  1.0000E-10  1.0000E-10  1.0000E-10  1.0000E-10  1.0000E-10  1.0000E-10  1.0000E-10  1.0000E-10
   6   8.0000E-10  5.0000E-10  5.0000E-10  2.0000E-10  2.0000E-10  1.0000E-10  1.0000E-10  1.0000E-10  1.0000E-10  5.0000E-10
   7   8.0000E-10  5.0000E-10  5.0000E-10  2.0000E-10  2.0000E-10  1.0000E-10  1.0000E-10  2.0000E-10  2.0000E-10   0.000    
   8    0.000      5.0000E-10  5.0000E-10  2.0000E-10  2.0000E-10  1.0000E-10  1.0000E-10  2.0000E-10  5.0000E-10   0.000    
   9    0.000      5.0000E-10  5.0000E-10  2.0000E-10  2.0000E-10  1.0000E-10  1.0000E-10  2.0000E-10  5.0000E-10   0.000    
  10    0.000      5.0000E-10  5.0000E-10  2.0000E-10  2.0000E-10  1.0000E-10  1.0000E-10  2.0000E-10  5.0000E-10  8.0000E-10
  11    0.000      1.0000E-10  1.0000E-10  1.0000E-10  1.0000E-10  1.0000E-10  1.0000E-10  2.0000E-10  5.0000E-10   0.000    
  12   1.0000E-10  1.0000E-10  1.0000E-10  1.0000E-10  1.0000E-10  1.0000E-10  1.0000E-10  1.0000E-10  2.0000E-10   0.000    
  13   1.0000E-10  1.0000E-10  2.0000E-10  2.0000E-10  2.0000E-10  2.0000E-10  2.0000E-10  1.0000E-10  1.0000E-10   0.000    
  14    0.000      2.0000E-10  5.0000E-10  5.0000E-10  5.0000E-10  5.0000E-10  5.0000E-10  2.0000E-10  1.0000E-10   0.000    
  15    0.000       0.000      8.0000E-10  8.0000E-10  8.0000E-10  8.0000E-10   0.000       0.000       0.000       0.000    

                  ET RATE =  7.500000E-08

 USING ET EXTINCTION DEPTH FROM PREVIOUS STRESS PERIOD. CURRENT PERIOD IS:      34

 USING EXTINCTION WATER CONTENT FROM PREVIOUS STRESS PERIOD. CURRENT PERIOD IS:      34

 USING AIR ENTRY PRESSURE FROM PREVIOUS STRESS PERIOD. CURRENT PERIOD IS:      34

 USING ROOT PRESSURE HEAD FROM PREVIOUS STRESS PERIOD. CURRENT PERIOD IS:      34

 USING ROOT ACTIVITY FROM PREVIOUS STRESS PERIOD. CURRENT PERIOD IS:      34

 PROCESSING AG STRESS PERIOD DATA

 READING AG STRESS PERIOD DATA

 READING IRRIGATION SEGMENT

 READING IRRIGATION WELL

 READING SUPPLEMENTAL WELL

 NO IRRPOND OR REUSING IRRPOND DATA FROM LAST STRESS PERIOD

 END PROCESSING AG STRESS PERIOD DATA OPTIONS
 
 SOLVING FOR HEAD 
                                                   Max.-Head-Change                         Max.-Flux-Residual
  Residual-Control   Outer-Iter.   Inner-Iter.     Column Row Layer    Maximum-Head-Change  Column Row Layer    Maximum-Flux-Residual          L2-NORM 
          0                 1           2             5    8     1       0.7057950285E-01       5    8    1         0.3840710812E+01      0.1000270669E+02
          0                 2           2             5    8     1      -0.6865357030E-02       5    8    1        -0.3840638231E+00      0.1000248177E+01
          0                 3           2             5    8     1       0.4675064215E-03       5    8    1         0.2688455016E-01      0.7001758354E-01
          0                 4           1             5    8     1      -0.1860251338E-04       5    8    1        -0.1099579307E-02      0.2863716962E-02

    ------------------------------------------------
       NWT REQUIRED            4 OUTER ITERATIONS 
       AND A TOTAL OF          7 INNER ITERATIONS.
    ------------------------------------------------

 NO OUTPUT CONTROL FOR STRESS PERIOD   34   TIME STEP    1
 
 SOLVING FOR HEAD 
                                                   Max.-Head-Change                         Max.-Flux-Residual
  Residual-Control   Outer-Iter.   Inner-Iter.     Column Row Layer    Maximum-Head-Change  Column Row Layer    Maximum-Flux-Residual          L2-NORM 
          0                 1           2             5    8     1       0.6745329103E-01       5    8    1         0.3667633661E+01      0.9686339258E+01
          0                 2           2             5    8     1      -0.6561268978E-02       5    8    1        -0.3667566008E+00      0.9686119243E+00
          0                 3           2             5    8     1       0.4467990830E-03       5    8    1         0.2567303941E-01      0.6780286690E-01
          0                 4           1             5    8     1      -0.1777854964E-04       5    8    1        -0.1050028478E-02      0.2773126381E-02

    ------------------------------------------------
       NWT REQUIRED            4 OUTER ITERATIONS 
       AND A TOTAL OF          7 INNER ITERATIONS.
    ------------------------------------------------

 NO OUTPUT CONTROL FOR STRESS PERIOD   34   TIME STEP    2
 
 SOLVING FOR HEAD 
                                                   Max.-Head-Change                         Max.-Flux-Residual
  Residual-Control   Outer-Iter.   Inner-Iter.     Column Row Layer    Maximum-Head-Change  Column Row Layer    Maximum-Flux-Residual          L2-NORM 
          0                 1           2             5    8     1       0.6451539438E-01       5    8    1         0.3505186613E+01      0.9394839934E+01
          0                 2           2             5    8     1      -0.6275497971E-02       5    8    1        -0.3505123273E+00      0.9394504513E+00
          0                 3           2             5    8     1       0.4273390755E-03       5    8    1         0.2453593567E-01      0.6576031919E-01
          0                 4           1             5    8     1      -0.1700421798E-04       5    8    1        -0.1003520891E-02      0.2689512632E-02

    ------------------------------------------------
       NWT REQUIRED            4 OUTER ITERATIONS 
       AND A TOTAL OF          7 INNER ITERATIONS.
    ------------------------------------------------

 NO OUTPUT CONTROL FOR STRESS PERIOD   34   TIME STEP    3
 
 SOLVING FOR HEAD 
                                                   Max.-Head-Change                         Max.-Flux-Residual
  Residual-Control   Outer-Iter.   Inner-Iter.     Column Row Layer    Maximum-Head-Change  Column Row Layer    Maximum-Flux-Residual          L2-NORM 
          0                 1           2             5    8     1       0.6175435906E-01       5    8    1         0.3352518956E+01      0.9108761544E+01
          0                 2           2             5    8     1      -0.6006930786E-02       5    8    1        -0.3352459956E+00      0.9108461014E+00
          0                 3           2             5    8     1       0.4090505849E-03       5    8    1         0.2346728790E-01      0.6375815222E-01
          0                 4           1             5    8     1      -0.1627650206E-04       5    8    1        -0.9598131487E-03      0.2607706139E-02

    ------------------------------------------------
       NWT REQUIRED            4 OUTER ITERATIONS 
       AND A TOTAL OF          7 INNER ITERATIONS.
    ------------------------------------------------

 NO OUTPUT CONTROL FOR STRESS PERIOD   34   TIME STEP    4
 
 SOLVING FOR HEAD 
                                                   Max.-Head-Change                         Max.-Flux-Residual
  Residual-Control   Outer-Iter.   Inner-Iter.     Column Row Layer    Maximum-Head-Change  Column Row Layer    Maximum-Flux-Residual          L2-NORM 
          0                 1           2             5    8     1       0.5915769297E-01       5    8    1         0.3209044519E+01      0.8837617208E+01
          0                 2           2             5    8     1      -0.5754351781E-02       5    8    1        -0.3208989536E+00      0.8837347597E+00
          0                 3           2             5    8     1       0.3918508345E-03       5    8    1         0.2246299075E-01      0.6186048589E-01
          0                 4           1             5    8     1      -0.1559210796E-04       5    8    1        -0.9187373462E-03      0.2530020823E-02

    ------------------------------------------------
       NWT REQUIRED            4 OUTER ITERATIONS 
       AND A TOTAL OF          7 INNER ITERATIONS.
    ------------------------------------------------

 NO OUTPUT CONTROL FOR STRESS PERIOD   34   TIME STEP    5
 
 SOLVING FOR HEAD 
                                                   Max.-Head-Change                         Max.-Flux-Residual
  Residual-Control   Outer-Iter.   Inner-Iter.     Column Row Layer    Maximum-Head-Change  Column Row Layer    Maximum-Flux-Residual          L2-NORM 
          0                 1           2             5    7     1       0.5681981663E-01       5    8    1         0.3074107901E+01      0.8580345499E+01
          0                 2           2             5    7     1      -0.5526977807E-02       5    8    1        -0.3074056640E+00      0.8580103688E+00
          0                 3           2             5    7     1       0.3763671427E-03       5    8    1         0.2151845653E-01      0.6005989355E-01
          0                 4           1             5    7     1      -0.1497600065E-04       5    8    1        -0.8801058596E-03      0.2456405106E-02

    ------------------------------------------------
       NWT REQUIRED            4 OUTER ITERATIONS 
       AND A TOTAL OF          7 INNER ITERATIONS.
    ------------------------------------------------

 NO OUTPUT CONTROL FOR STRESS PERIOD   34   TIME STEP    6
 
 SOLVING FOR HEAD 
                                                   Max.-Head-Change                         Max.-Flux-Residual
  Residual-Control   Outer-Iter.   Inner-Iter.     Column Row Layer    Maximum-Head-Change  Column Row Layer    Maximum-Flux-Residual          L2-NORM 
          0                 1           2             5    7     1       0.5556482162E-01       5    7    1         0.2952913580E+01      0.8335981539E+01
          0                 2           2             5    7     1      -0.5404907399E-02       5    7    1        -0.2952890111E+00      0.8335764051E+00
          0                 3           2             5    7     1       0.3680545377E-03       5    7    1         0.2067026417E-01      0.5834958098E-01
          0                 4           1             5    7     1      -0.1464523445E-04       5    7    1        -0.8454148799E-03      0.2386452874E-02

    ------------------------------------------------
       NWT REQUIRED            4 OUTER ITERATIONS 
       AND A TOTAL OF          7 INNER ITERATIONS.
    ------------------------------------------------

 NO OUTPUT CONTROL FOR STRESS PERIOD   34   TIME STEP    7
 
 SOLVING FOR HEAD 
                                                   Max.-Head-Change                         Max.-Flux-Residual
  Residual-Control   Outer-Iter.   Inner-Iter.     Column Row Layer    Maximum-Head-Change  Column Row Layer    Maximum-Flux-Residual          L2-NORM 
          0                 1           2             5    7     1       0.5433369347E-01       5    7    1         0.2887681759E+01      0.8103636743E+01
          0                 2           2             5    7     1      -0.5285157788E-02       5    7    1        -0.2887662066E+00      0.8103441307E+00
          0                 3           2             5    7     1       0.3598999788E-03       5    7    1         0.2021366409E-01      0.5672341385E-01
          0                 4           1             5    7     1      -0.1432075732E-04       5    7    1        -0.8267399282E-03      0.2319960530E-02

    ------------------------------------------------
       NWT REQUIRED            4 OUTER ITERATIONS 
       AND A TOTAL OF          7 INNER ITERATIONS.
    ------------------------------------------------

 NO OUTPUT CONTROL FOR STRESS PERIOD   34   TIME STEP    8
 
 SOLVING FOR HEAD 
                                                   Max.-Head-Change                         Max.-Flux-Residual
  Residual-Control   Outer-Iter.   Inner-Iter.     Column Row Layer    Maximum-Head-Change  Column Row Layer    Maximum-Flux-Residual          L2-NORM 
          0                 1           2             5    7     1       0.5312755079E-01       5    7    1         0.2823711655E+01      0.7882493838E+01
          0                 2           2             5    7     1      -0.5167837887E-02       5    7    1        -0.2823695263E+00      0.7882318211E+00
          0                 3           2             5    7     1       0.3519108802E-03       5    7    1         0.1976589315E-01      0.5517560053E-01
          0                 4           1             5    7     1      -0.1400286365E-04       5    7    1        -0.8084260705E-03      0.2256627939E-02

    ------------------------------------------------
       NWT REQUIRED            4 OUTER ITERATIONS 
       AND A TOTAL OF          7 INNER ITERATIONS.
    ------------------------------------------------

 NO OUTPUT CONTROL FOR STRESS PERIOD   34   TIME STEP    9
 
 SOLVING FOR HEAD 
                                                   Max.-Head-Change                         Max.-Flux-Residual
  Residual-Control   Outer-Iter.   Inner-Iter.     Column Row Layer    Maximum-Head-Change  Column Row Layer    Maximum-Flux-Residual          L2-NORM 
          0                 1           2             4    7     1       0.5201748189E-01       5    7    1         0.2761020858E+01      0.7671803301E+01
          0                 2           2             4    7     1      -0.5059877217E-02       5    7    1        -0.2761007354E+00      0.7671645350E+00
          0                 3           2             4    7     1       0.3445589758E-03       5    7    1         0.1932707487E-01      0.5370093532E-01
          0                 4           1             4    7     1      -0.1371032327E-04       5    7    1        -0.7904783836E-03      0.2196320361E-02

    ------------------------------------------------
       NWT REQUIRED            4 OUTER ITERATIONS 
       AND A TOTAL OF          7 INNER ITERATIONS.
    ------------------------------------------------

 NO OUTPUT CONTROL FOR STRESS PERIOD   34   TIME STEP   10
 
 SOLVING FOR HEAD 
                                                   Max.-Head-Change                         Max.-Flux-Residual
  Residual-Control   Outer-Iter.   Inner-Iter.     Column Row Layer    Maximum-Head-Change  Column Row Layer    Maximum-Flux-Residual          L2-NORM 
          0                 1           2             4    7     1       0.5158435637E-01       4    7    1         0.2702633723E+01      0.7470874507E+01
          0                 2           2             4    7     1      -0.5017750128E-02       4    7    1        -0.2702633200E+00      0.7470732486E+00
          0                 3           2             4    7     1       0.3416902362E-03       4    7    1         0.1891844333E-01      0.5229462397E-01
          0                 4           1             4    7     1      -0.1359617368E-04       4    7    1        -0.7737653998E-03      0.2138782780E-02

    ------------------------------------------------
       NWT REQUIRED            4 OUTER ITERATIONS 
       AND A TOTAL OF          7 INNER ITERATIONS.
    ------------------------------------------------

 NO OUTPUT CONTROL FOR STRESS PERIOD   34   TIME STEP   11
 
 SOLVING FOR HEAD 
                                                   Max.-Head-Change                         Max.-Flux-Residual
  Residual-Control   Outer-Iter.   Inner-Iter.     Column Row Layer    Maximum-Head-Change  Column Row Layer    Maximum-Flux-Residual          L2-NORM 
          0                 1           2             4    7     1       0.5112596101E-01       4    7    1         0.2680140938E+01      0.7279066079E+01
          0                 2           2             4    7     1      -0.4973164508E-02       4    7    1        -0.2680142894E+00      0.7278938505E+00
          0                 3           2             4    7     1       0.3386540838E-03       4    7    1         0.1876100875E-01      0.5095215219E-01
          0                 4           1             4    7     1      -0.1347536257E-04       4    7    1        -0.7673263267E-03      0.2083928189E-02

    ------------------------------------------------
       NWT REQUIRED            4 OUTER ITERATIONS 
       AND A TOTAL OF          7 INNER ITERATIONS.
    ------------------------------------------------

 NO OUTPUT CONTROL FOR STRESS PERIOD   34   TIME STEP   12
 
 SOLVING FOR HEAD 
                                                   Max.-Head-Change                         Max.-Flux-Residual
  Residual-Control   Outer-Iter.   Inner-Iter.     Column Row Layer    Maximum-Head-Change  Column Row Layer    Maximum-Flux-Residual          L2-NORM 
          0                 1           2             4    7     1       0.5064444291E-01       4    7    1         0.2656316371E+01      0.7095800631E+01
          0                 2           2             4    7     1      -0.4926329253E-02       4    7    1        -0.2656320525E+00      0.7095685773E+00
          0                 3           2             4    7     1       0.3354647441E-03       4    7    1         0.1859425002E-01      0.4966940685E-01
          0                 4           1             4    7     1      -0.1334845604E-04       4    7    1        -0.7605058959E-03      0.2031444717E-02

    ------------------------------------------------
       NWT REQUIRED            4 OUTER ITERATIONS 
       AND A TOTAL OF          7 INNER ITERATIONS.
    ------------------------------------------------

 NO OUTPUT CONTROL FOR STRESS PERIOD   34   TIME STEP   13
 
 SOLVING FOR HEAD 
                                                   Max.-Head-Change                         Max.-Flux-Residual
  Residual-Control   Outer-Iter.   Inner-Iter.     Column Row Layer    Maximum-Head-Change  Column Row Layer    Maximum-Flux-Residual          L2-NORM 
          0                 1           2             4    7     1       0.5014233491E-01       4    7    1         0.2631300101E+01      0.6920533885E+01
          0                 2           2             4    7     1      -0.4877490777E-02       4    7    1        -0.2631306198E+00      0.6920430411E+00
          0                 3           2             4    7     1       0.3321389959E-03       4    7    1         0.1841914782E-01      0.4844266963E-01
          0                 4           1             4    7     1      -0.1321612124E-04       4    7    1        -0.7533441906E-03      0.1981287962E-02

    ------------------------------------------------
       NWT REQUIRED            4 OUTER ITERATIONS 
       AND A TOTAL OF          7 INNER ITERATIONS.
    ------------------------------------------------

 NO OUTPUT CONTROL FOR STRESS PERIOD   34   TIME STEP   14
 
 SOLVING FOR HEAD 
                                                   Max.-Head-Change                         Max.-Flux-Residual
  Residual-Control   Outer-Iter.   Inner-Iter.     Column Row Layer    Maximum-Head-Change  Column Row Layer    Maximum-Flux-Residual          L2-NORM 
          0                 1           2             4    7     1       0.4962187925E-01       4    7    1         0.2605216262E+01      0.6752760812E+01
          0                 2           2             4    7     1      -0.4826867225E-02       4    7    1        -0.2605224070E+00      0.6752640183E+00
          0                 3           2             4    7     1       0.3286916946E-03       4    7    1         0.1823657123E-01      0.4726800172E-01
          0                 4           1             4    7     1      -0.1307895016E-04       4    7    1        -0.7458768191E-03      0.1933279057E-02

    ------------------------------------------------
       NWT REQUIRED            4 OUTER ITERATIONS 
       AND A TOTAL OF          7 INNER ITERATIONS.
    ------------------------------------------------

 NO OUTPUT CONTROL FOR STRESS PERIOD   34   TIME STEP   15
 
 SOLVING FOR HEAD 
                                                   Max.-Head-Change                         Max.-Flux-Residual
  Residual-Control   Outer-Iter.   Inner-Iter.     Column Row Layer    Maximum-Head-Change  Column Row Layer    Maximum-Flux-Residual          L2-NORM 
          0                 1           2             4    7     1       0.4908504682E-01       4    7    1         0.2578173918E+01      0.6592030458E+01
          0                 2           2             4    7     1      -0.4774650344E-02       4    7    1        -0.2578183228E+00      0.6591946401E+00
          0                 3           2             4    7     1       0.3251358968E-03       4    7    1         0.1804728385E-01      0.4614333978E-01
          0                 4           1             4    7     1      -0.1293746179E-04       4    7    1        -0.7381349669E-03      0.1887228810E-02

    ------------------------------------------------
       NWT REQUIRED            4 OUTER ITERATIONS 
       AND A TOTAL OF          7 INNER ITERATIONS.
    ------------------------------------------------

 NO OUTPUT CONTROL FOR STRESS PERIOD   34   TIME STEP   16
 
 SOLVING FOR HEAD 
                                                   Max.-Head-Change                         Max.-Flux-Residual
  Residual-Control   Outer-Iter.   Inner-Iter.     Column Row Layer    Maximum-Head-Change  Column Row Layer    Maximum-Flux-Residual          L2-NORM 
          0                 1           2             4    7     1       0.4853380259E-01       4    7    1         0.2550282449E+01      0.6437904705E+01
          0                 2           2             4    7     1      -0.4721031301E-02       4    7    1        -0.2550293069E+00      0.6437828834E+00
          0                 3           2             4    7     1       0.3214846190E-03       4    7    1         0.1785205141E-01      0.4506453619E-01
          0                 4           1             4    7     1      -0.1279217410E-04       4    7    1        -0.7301499529E-03      0.1843119254E-02

    ------------------------------------------------
       NWT REQUIRED            4 OUTER ITERATIONS 
       AND A TOTAL OF          7 INNER ITERATIONS.
    ------------------------------------------------

 NO OUTPUT CONTROL FOR STRESS PERIOD   34   TIME STEP   17
 
 SOLVING FOR HEAD 
                                                   Max.-Head-Change                         Max.-Flux-Residual
  Residual-Control   Outer-Iter.   Inner-Iter.     Column Row Layer    Maximum-Head-Change  Column Row Layer    Maximum-Flux-Residual          L2-NORM 
          0                 1           2             4    7     1       0.4796998156E-01       4    7    1         0.2521643735E+01      0.6289995538E+01
          0                 2           2             4    7     1      -0.4666188618E-02       4    7    1        -0.2521655492E+00      0.6289927171E+00
          0                 3           2             4    7     1       0.3177500188E-03       4    7    1         0.1765158720E-01      0.4402925070E-01
          0                 4           1             4    7     1      -0.1264357107E-04       4    7    1        -0.7219509712E-03      0.1800785588E-02

    ------------------------------------------------
       NWT REQUIRED            4 OUTER ITERATIONS 
       AND A TOTAL OF          7 INNER ITERATIONS.
    ------------------------------------------------

 NO OUTPUT CONTROL FOR STRESS PERIOD   34   TIME STEP   18
 
 SOLVING FOR HEAD 
                                                   Max.-Head-Change                         Max.-Flux-Residual
  Residual-Control   Outer-Iter.   Inner-Iter.     Column Row Layer    Maximum-Head-Change  Column Row Layer    Maximum-Flux-Residual          L2-NORM 
          0                 1           2             4    7     1       0.4739530189E-01       4    7    1         0.2492352917E+01      0.6147935862E+01
          0                 2           2             4    7     1      -0.4610289451E-02       4    7    1        -0.2492365656E+00      0.6147874150E+00
          0                 3           2             4    7     1       0.3139434779E-03       4    7    1         0.1744655732E-01      0.4303492253E-01
          0                 4           1             4    7     1      -0.1249210517E-04       4    7    1        -0.7135652268E-03      0.1760127362E-02

    ------------------------------------------------
       NWT REQUIRED            4 OUTER ITERATIONS 
       AND A TOTAL OF          7 INNER ITERATIONS.
    ------------------------------------------------

 NO OUTPUT CONTROL FOR STRESS PERIOD   34   TIME STEP   19
 
 SOLVING FOR HEAD 
                                                   Max.-Head-Change                         Max.-Flux-Residual
  Residual-Control   Outer-Iter.   Inner-Iter.     Column Row Layer    Maximum-Head-Change  Column Row Layer    Maximum-Flux-Residual          L2-NORM 
          0                 1           2             4    7     1       0.4681122355E-01       4    7    1         0.2462491885E+01      0.6011388641E+01
          0                 2           2             4    7     1      -0.4553475838E-02       4    7    1        -0.2462505464E+00      0.6011332825E+00
          0                 3           2             4    7     1       0.3100746694E-03       4    7    1         0.1723753512E-01      0.4207912243E-01
          0                 4           1             4    7     1      -0.1233816196E-04       4    7    1        -0.7050162262E-03      0.1721029041E-02

    ------------------------------------------------
       NWT REQUIRED            4 OUTER ITERATIONS 
       AND A TOTAL OF          7 INNER ITERATIONS.
    ------------------------------------------------

 NO OUTPUT CONTROL FOR STRESS PERIOD   34   TIME STEP   20
 
 SOLVING FOR HEAD 
                                                   Max.-Head-Change                         Max.-Flux-Residual
  Residual-Control   Outer-Iter.   Inner-Iter.     Column Row Layer    Maximum-Head-Change  Column Row Layer    Maximum-Flux-Residual          L2-NORM 
          0                 1           2             4    7     1       0.4621923926E-01       4    7    1         0.2432143531E+01      0.5880040404E+01
          0                 2           2             4    7     1      -0.4495892999E-02       4    7    1        -0.2432157823E+00      0.5879989817E+00
          0                 3           2             4    7     1       0.3061534806E-03       4    7    1         0.1702510085E-01      0.4115973089E-01
          0                 4           1             4    7     1      -0.1218213401E-04       4    7    1        -0.6963276405E-03      0.1683422891E-02

    ------------------------------------------------
       NWT REQUIRED            4 OUTER ITERATIONS 
       AND A TOTAL OF          7 INNER ITERATIONS.
    ------------------------------------------------

 NO OUTPUT CONTROL FOR STRESS PERIOD   34   TIME STEP   21
 
 SOLVING FOR HEAD 
                                                   Max.-Head-Change                         Max.-Flux-Residual
  Residual-Control   Outer-Iter.   Inner-Iter.     Column Row Layer    Maximum-Head-Change  Column Row Layer    Maximum-Flux-Residual          L2-NORM 
          0                 1           2             4    7     1       0.4562073095E-01       4    7    1         0.2401385248E+01      0.5753595670E+01
          0                 2           2             4    7     1      -0.4437675380E-02       4    7    1        -0.2401400138E+00      0.5753549851E+00
          0                 3           2             4    7     1       0.3021890676E-03       4    7    1         0.1680979639E-01      0.4027467258E-01
          0                 4           1             4    7     1      -0.1202438652E-04       4    7    1        -0.6875216893E-03      0.1647237934E-02

    ------------------------------------------------
       NWT REQUIRED            4 OUTER ITERATIONS 
       AND A TOTAL OF          7 INNER ITERATIONS.
    ------------------------------------------------

 NO OUTPUT CONTROL FOR STRESS PERIOD   34   TIME STEP   22
 
 SOLVING FOR HEAD 
                                                   Max.-Head-Change                         Max.-Flux-Residual
  Residual-Control   Outer-Iter.   Inner-Iter.     Column Row Layer    Maximum-Head-Change  Column Row Layer    Maximum-Flux-Residual          L2-NORM 
          0                 1           2             4    7     1       0.4501711587E-01       4    7    1         0.2370295886E+01      0.5631790299E+01
          0                 2           2             4    7     1      -0.4378960855E-02       4    7    1        -0.2370311271E+00      0.5631748766E+00
          0                 3           2             4    7     1       0.2981908187E-03       4    7    1         0.1659217378E-01      0.3942206054E-01
          0                 4           1             4    7     1      -0.1186529215E-04       4    7    1        -0.6786209046E-03      0.1612352479E-02

    ------------------------------------------------
       NWT REQUIRED            4 OUTER ITERATIONS 
       AND A TOTAL OF          7 INNER ITERATIONS.
    ------------------------------------------------

 NO OUTPUT CONTROL FOR STRESS PERIOD   34   TIME STEP   23
 
 SOLVING FOR HEAD 
                                                   Max.-Head-Change                         Max.-Flux-Residual
  Residual-Control   Outer-Iter.   Inner-Iter.     Column Row Layer    Maximum-Head-Change  Column Row Layer    Maximum-Flux-Residual          L2-NORM 
          0                 1           2             4    7     1       0.4440931264E-01       4    7    1         0.2338927337E+01      0.5514362192E+01
          0                 2           2             4    7     1      -0.4319838798E-02       4    7    1        -0.2338943123E+00      0.5514324774E+00
          0                 3           2             4    7     1       0.2941648196E-03       4    7    1         0.1637259626E-01      0.3860012916E-01
          0                 4           1             4    7     1      -0.1170509393E-04       4    7    1        -0.6696401679E-03      0.1578742871E-02

    ------------------------------------------------
       NWT REQUIRED            4 OUTER ITERATIONS 
       AND A TOTAL OF          7 INNER ITERATIONS.
    ------------------------------------------------

 NO OUTPUT CONTROL FOR STRESS PERIOD   34   TIME STEP   24
 
 SOLVING FOR HEAD 
                                                   Max.-Head-Change                         Max.-Flux-Residual
  Residual-Control   Outer-Iter.   Inner-Iter.     Column Row Layer    Maximum-Head-Change  Column Row Layer    Maximum-Flux-Residual          L2-NORM 
          0                 1           2             4    7     1       0.4379869516E-01       4    7    1         0.2307356018E+01      0.5401092495E+01
          0                 2           2             4    7     1      -0.4260442868E-02       4    7    1        -0.2307372124E+00      0.5401058539E+00
          0                 3           2             4    7     1       0.2901201721E-03       4    7    1         0.1615159886E-01      0.3780725445E-01
          0                 4           1             4    7     1      -0.1154415395E-04       4    7    1        -0.6606013831E-03      0.1546304899E-02

    ------------------------------------------------
       NWT REQUIRED            4 OUTER ITERATIONS 
       AND A TOTAL OF          7 INNER ITERATIONS.
    ------------------------------------------------

 NO OUTPUT CONTROL FOR STRESS PERIOD   34   TIME STEP   25
 
 SOLVING FOR HEAD 
                                                   Max.-Head-Change                         Max.-Flux-Residual
  Residual-Control   Outer-Iter.   Inner-Iter.     Column Row Layer    Maximum-Head-Change  Column Row Layer    Maximum-Flux-Residual          L2-NORM 
          0                 1           2             4    7     1       0.4318601037E-01       4    7    1         0.2275624373E+01      0.5291755433E+01
          0                 2           2             4    7     1      -0.4200845731E-02       4    7    1        -0.2275640723E+00      0.5291724631E+00
          0                 3           2             4    7     1       0.2860618242E-03       4    7    1         0.1592947873E-01      0.3704194047E-01
          0                 4           1             4    7     1      -0.1138266861E-04       4    7    1        -0.6515166540E-03      0.1515007332E-02

    ------------------------------------------------
       NWT REQUIRED            4 OUTER ITERATIONS 
       AND A TOTAL OF          7 INNER ITERATIONS.
    ------------------------------------------------

 NO OUTPUT CONTROL FOR STRESS PERIOD   34   TIME STEP   26
 
 SOLVING FOR HEAD 
                                                   Max.-Head-Change                         Max.-Flux-Residual
  Residual-Control   Outer-Iter.   Inner-Iter.     Column Row Layer    Maximum-Head-Change  Column Row Layer    Maximum-Flux-Residual          L2-NORM 
          0                 1           2             4    7     1       0.4257233558E-01       4    7    1         0.2243792725E+01      0.5186145519E+01
          0                 2           2             4    7     1      -0.4141152194E-02       4    7    1        -0.2243809253E+00      0.5186117577E+00
          0                 3           2             4    7     1       0.2819969132E-03       4    7    1         0.1570665818E-01      0.3630270813E-01
          0                 4           1             4    7     1      -0.1122092216E-04       4    7    1        -0.6424032881E-03      0.1484767359E-02

    ------------------------------------------------
       NWT REQUIRED            4 OUTER ITERATIONS 
       AND A TOTAL OF          7 INNER ITERATIONS.
    ------------------------------------------------

 NO OUTPUT CONTROL FOR STRESS PERIOD   34   TIME STEP   27
 
 SOLVING FOR HEAD 
                                                   Max.-Head-Change                         Max.-Flux-Residual
  Residual-Control   Outer-Iter.   Inner-Iter.     Column Row Layer    Maximum-Head-Change  Column Row Layer    Maximum-Flux-Residual          L2-NORM 
          0                 1           2             4    7     1       0.4195866874E-01       4    7    1         0.2211916933E+01      0.5084086764E+01
          0                 2           2             4    7     1      -0.4081459342E-02       4    7    1        -0.2211933579E+00      0.5084061902E+00
          0                 3           2             4    7     1       0.2779320492E-03       4    7    1         0.1548352826E-01      0.3558829452E-01
          0                 4           1             4    7     1      -0.1105917709E-04       4    7    1        -0.6332772587E-03      0.1455541586E-02

    ------------------------------------------------
       NWT REQUIRED            4 OUTER ITERATIONS 
       AND A TOTAL OF          7 INNER ITERATIONS.
    ------------------------------------------------

 NO OUTPUT CONTROL FOR STRESS PERIOD   34   TIME STEP   28
 
 SOLVING FOR HEAD 
                                                   Max.-Head-Change                         Max.-Flux-Residual
  Residual-Control   Outer-Iter.   Inner-Iter.     Column Row Layer    Maximum-Head-Change  Column Row Layer    Maximum-Flux-Residual          L2-NORM 
          0                 1           2             4    7     1       0.4134553143E-01       4    7    1         0.2180027139E+01      0.4985382335E+01
          0                 2           2             4    7     1      -0.4021817919E-02       4    7    1        -0.2180043851E+00      0.4985359258E+00
          0                 3           2             4    7     1       0.2738706879E-03       4    7    1         0.1526029998E-01      0.3489740524E-01
          0                 4           1             4    7     1      -0.1089757179E-04       4    7    1        -0.6241471981E-03      0.1427302497E-02

    ------------------------------------------------
       NWT REQUIRED            4 OUTER ITERATIONS 
       AND A TOTAL OF          7 INNER ITERATIONS.
    ------------------------------------------------

 NO OUTPUT CONTROL FOR STRESS PERIOD   34   TIME STEP   29
 
 SOLVING FOR HEAD 
                                                   Max.-Head-Change                         Max.-Flux-Residual
  Residual-Control   Outer-Iter.   Inner-Iter.     Column Row Layer    Maximum-Head-Change  Column Row Layer    Maximum-Flux-Residual          L2-NORM 
          0                 1           2             4    7     1       0.4073366317E-01       4    7    1         0.2148164787E+01      0.4889882182E+01
          0                 2           2             4    7     1      -0.3962299868E-02       4    7    1        -0.2148181516E+00      0.4889861114E+00
          0                 3           2             4    7     1       0.2698177291E-03       4    7    1         0.1503726355E-01      0.3422891020E-01
          0                 4           1             4    7     1      -0.1073630047E-04       4    7    1        -0.6150249901E-03      0.1399955240E-02

    ------------------------------------------------
       NWT REQUIRED            4 OUTER ITERATIONS 
       AND A TOTAL OF          7 INNER ITERATIONS.
    ------------------------------------------------

 NO OUTPUT CONTROL FOR STRESS PERIOD   34   TIME STEP   30



 STREAM LISTING     PERIOD     34   STEP       30

 LAYER ROW COL. STREAM  RCH.  FLOW INTO     FLOW TO   FLOW OUT OF   OVRLND.     DIRECT     STREAM       STREAM     STREAM     STREAM   STREAMBED  STREAMBED
                SEG.NO.  NO.  STRM. RCH.    AQUIFER    STRM. RCH.    RUNOFF     PRECIP       ET          HEAD       DEPTH      WIDTH   CONDCTNC.   GRADIENT

   1    1    1     1     1    1.7624E+01  2.0521E-01   1.7419E+01  0.000E+00  0.000E+00  0.000E+00  1.09411E+03  1.059E+00  1.124E+01  5.056E-02  1.353E+00
   1    2    2     1     2    1.7419E+01  3.1648E-01   1.7103E+01  0.000E+00  0.000E+00  0.000E+00  1.08911E+03  1.054E+00  1.115E+01  7.807E-02  1.351E+00
   1    3    3     1     3    1.7103E+01  2.6863E-01   1.6834E+01  0.000E+00  0.000E+00  0.000E+00  1.08347E+03  1.049E+00  1.106E+01  6.635E-02  1.350E+00
   1    3    4     1     4    1.6834E+01  2.4632E-01   1.6588E+01  0.000E+00  0.000E+00  0.000E+00  1.07845E+03  1.044E+00  1.097E+01  6.091E-02  1.348E+00
   1    4    5     2     1    1.4588E+01  3.0175E-01   1.4286E+01  0.000E+00  0.000E+00  0.000E+00  1.07280E+03  8.686E-01  1.200E+01  7.800E-02  1.290E+00
   1    5    6     2     2    1.4286E+01  2.3154E-01   1.4055E+01  0.000E+00  0.000E+00  0.000E+00  1.06737E+03  8.590E-01  1.200E+01  6.000E-02  1.286E+00
   1    6    6     2     3    1.4055E+01  2.3103E-01   1.3824E+01  0.000E+00  0.000E+00  0.000E+00  1.06264E+03  8.505E-01  1.200E+01  6.000E-02  1.284E+00
   1    7    6     2     4    1.3824E+01  2.3052E-01   1.3593E+01  0.000E+00  0.000E+00  0.000E+00  1.05792E+03  8.420E-01  1.200E+01  6.000E-02  1.281E+00
   1    8    6     2     5    1.3593E+01  2.3001E-01   1.3363E+01  0.000E+00  0.000E+00  0.000E+00  1.05319E+03  8.335E-01  1.200E+01  6.000E-02  1.278E+00
   1    3    5     3     1    2.0000E+00  2.8252E-01   1.7175E+00  0.000E+00  0.000E+00  0.000E+00  1.07555E+03  1.909E+00  9.636E+00  7.227E-02  1.955E+00
   1    3    6     3     2    1.7175E+00  2.4905E-01   1.4684E+00  0.000E+00  0.000E+00  0.000E+00  1.07264E+03  1.727E+00  8.909E+00  6.682E-02  1.864E+00
   1    3    7     3     3    1.4684E+00  1.9718E-01   1.2712E+00  0.000E+00  0.000E+00  0.000E+00  1.06987E+03  1.555E+00  8.218E+00  5.547E-02  1.777E+00
   1    4    8     3     4    1.2712E+00  2.2567E-01   1.0456E+00  0.000E+00  0.000E+00  0.000E+00  1.06682E+03  1.364E+00  7.455E+00  6.709E-02  1.682E+00
   1    5    8     3     5    1.0456E+00  1.5790E-01   8.8768E-01  0.000E+00  0.000E+00  0.000E+00  1.06362E+03  1.164E+00  6.655E+00  4.991E-02  1.582E+00
   1    6    8     3     6    8.8768E-01  5.5980E-02   8.3170E-01  0.000E+00  0.000E+00  0.000E+00  1.06158E+03  1.036E+00  6.145E+00  1.844E-02  1.518E+00
   1    5   10     4     1    1.0000E+01  9.0919E-02   9.9091E+00  0.000E+00  0.000E+00  0.000E+00  1.07836E+03  6.368E-01  1.000E+01  2.500E-02  1.212E+00
   1    5    9     4     2    9.9091E+00  1.8158E-01   9.7275E+00  0.000E+00  0.000E+00  0.000E+00  1.07154E+03  6.315E-01  1.000E+01  5.000E-02  1.211E+00
   1    6    8     4     3    9.7275E+00  1.2689E-01   9.6006E+00  0.000E+00  0.000E+00  0.000E+00  1.06381E+03  6.256E-01  1.000E+01  3.500E-02  1.209E+00
   1    6    8     5     1    1.0432E+01  2.2686E-01   1.0205E+01  0.000E+00  0.000E+00  0.000E+00  1.05868E+03  6.790E-01  1.542E+01  6.166E-02  1.226E+00
   1    7    7     5     2    1.0205E+01  2.7894E-01   9.9265E+00  0.000E+00  0.000E+00  0.000E+00  1.05417E+03  6.732E-01  1.519E+01  7.594E-02  1.224E+00
   1    8    7     5     3    9.9265E+00  1.9221E-01   9.7343E+00  0.000E+00  0.000E+00  0.000E+00  1.04992E+03  6.676E-01  1.497E+01  5.241E-02  1.223E+00
   1    8    6     5     4    9.7343E+00  1.3577E-01   9.5985E+00  0.000E+00  0.000E+00  0.000E+00  1.04691E+03  6.637E-01  1.482E+01  3.706E-02  1.221E+00
   1    9    6     6     1    2.2962E+01  2.4939E-01   2.2712E+01  0.000E+00  0.000E+00  0.000E+00  1.04388E+03  1.157E+00  1.200E+01  6.000E-02  1.386E+00
   1   10    7     6     2    2.2712E+01  2.4894E-01   2.2463E+01  0.000E+00  0.000E+00  0.000E+00  1.03933E+03  1.149E+00  1.200E+01  6.000E-02  1.383E+00
   1   11    7     6     3    2.2463E+01  2.4848E-01   2.2215E+01  0.000E+00  0.000E+00  0.000E+00  1.03478E+03  1.141E+00  1.200E+01  6.000E-02  1.380E+00
   1   12    7     6     4    2.2215E+01  2.4802E-01   2.1967E+01  0.000E+00  0.000E+00  0.000E+00  1.03022E+03  1.134E+00  1.200E+01  6.000E-02  1.378E+00
   1   13    7     6     5    2.1967E+01  1.2846E-02   2.1954E+01  0.000E+00  0.000E+00  0.000E+00  1.02704E+03  1.130E+00  1.200E+01  2.400E-02  1.784E-01
   1   14    9     7     1    1.5000E+02  1.3935E+00   1.4861E+02  0.000E+00  0.000E+00  0.000E+00  1.03987E+03  2.288E+00  5.529E+01  5.593E-01  8.305E-01
   1   13    8     7     2    1.4861E+02  2.0207E+00   1.4659E+02  0.000E+00  0.000E+00  0.000E+00  1.03478E+03  2.278E+00  5.525E+01  6.147E-01  1.096E+00
   1   13    7     7     3    1.4659E+02  1.7779E+00   1.4481E+02  0.000E+00  0.000E+00  0.000E+00  1.02969E+03  2.268E+00  5.521E+01  5.583E-01  1.061E+00
   1   13    6     8     1    1.6676E+02  1.1935E+00   1.6557E+02  0.000E+00  0.000E+00  0.000E+00  1.02480E+03  2.927E+00  4.244E+01  4.325E-01  9.198E-01
   1   13    5     8     2    1.6557E+02  4.2339E-01   1.6514E+02  0.000E+00  0.000E+00  0.000E+00  1.01855E+03  2.922E+00  4.236E+01  4.317E-01  3.269E-01
   1   13    4     8     3    1.6514E+02 -1.6105E+00   1.6676E+02  0.000E+00  0.000E+00  0.000E+00  1.01230E+03  2.926E+00  4.242E+01  4.323E+00 -1.242E-01
   1   13    3     8     4    1.6676E+02 -3.2518E+00   1.7001E+02  0.000E+00  0.000E+00  0.000E+00  1.00607E+03  2.942E+00  4.265E+01  4.347E+00 -2.494E-01
   1   13    2     8     5    1.7001E+02 -2.4884E+00   1.7250E+02  0.000E+00  0.000E+00  0.000E+00  9.99835E+02  2.960E+00  4.292E+01  4.374E+00 -1.896E-01
   1   13    1     8     6    1.7250E+02 -1.9738E+00   1.7447E+02  0.000E+00  0.000E+00  0.000E+00  9.94850E+02  2.975E+00  4.313E+01  2.637E+00 -2.495E-01
   1    8    6     9     1    0.0000E+00  0.0000E+00   0.0000E+00  0.000E+00  0.000E+00  0.000E+00  1.07875E+03  0.000E+00  4.000E+00  0.000E+00  1.000E+00
   1    8    5     9     2    0.0000E+00  0.0000E+00   0.0000E+00  0.000E+00  0.000E+00  0.000E+00  1.07825E+03  0.000E+00  4.000E+00  0.000E+00  1.000E+00





UNSATURATED ZONE PACKAGE VOLUMETRIC BUDGET FOR  TIME STEP    30 STRESS PERIOD   34
  ------------------------------------------------------------------------------



     CUMULATIVE VOLUMES      L**3       RATES FOR THIS TIME STEP      L**3/T
     ------------------                 ------------------------

           IN:                                      IN:
           ---                                      ---
        INFILTRATION =  1275511945.8862          INFILTRATION =          12.0675

          OUT:                                     OUT:
          ----                                     ----
              UZF ET =  1274705027.0216                UZF ET =          12.0675
        UZF RECHARGE =       73224.0000          UZF RECHARGE =       0.0000E+00

            IN - OUT =      733694.8646              IN - OUT =       0.0000E+00

          STORAGE:                                 STORAGE:
          --------                                 --------
      STORAGE CHANGE =      733694.9096        STORAGE CHANGE =      -8.2996E-17

 PERCENT DISCREPANCY IS DIFFERENCE BETWEEN IN-OUT MINUS CHANGE IN STORAGE
 DIVIDED BY THE AVERAGE OF IN AND OUT TIMES 100

 PERCENT DISCREPANCY =           0.00     PERCENT DISCREPANCY =           0.00






1
  VOLUMETRIC BUDGET FOR AGRICULTURAL FIELDS AT  END OF TIME STEP   30, STRESS PERIOD  34
  ------------------------------------------------------------------------------

     CUMULATIVE VOLUMES      L**3       RATES FOR THIS TIME STEP      L**3/T
     ------------------                 ------------------------

           IN:                                      IN:
           ---                                      ---
               AG WELLS  =  1201881984.0000                 AG WELLS  =          11.2200
      DIVERSION SEGMENTS =           0.0000        DIVERSION SEGMENTS =           0.0000
       IRRIGATION PONDS  =           0.0000         IRRIGATION PONDS  =           0.0000
           GW IRRIGATION =           0.0000             GW IRRIGATION =           0.0000
           SW IRRIGATION =           0.0000             SW IRRIGATION =           0.0000
        SYSTEM LOSSES GW =           0.0000          SYSTEM LOSSES GW =           0.0000
        SYSTEM LOSSES SW =           0.0000          SYSTEM LOSSES SW =           0.0000

                TOTAL IN =  1201881984.0000                  TOTAL IN =          11.2200

          OUT:                                     OUT:
          ----                                     ----
               AG WELLS  =           0.0000                 AG WELLS  =           0.0000
      DIVERSION SEGMENTS =           0.0000        DIVERSION SEGMENTS =           0.0000
       IRRIGATION PONDS  =           0.0000         IRRIGATION PONDS  =           0.0000
           GW IRRIGATION =  1201881984.0000             GW IRRIGATION =          11.2200
           SW IRRIGATION =           0.0000             SW IRRIGATION =           0.0000
        SYSTEM LOSSES GW =           0.0000          SYSTEM LOSSES GW =           0.0000
        SYSTEM LOSSES SW =           0.0000          SYSTEM LOSSES SW =           0.0000

               TOTAL OUT =  1201881984.0000                 TOTAL OUT =          11.2200

                IN - OUT =           0.0000                  IN - OUT =           0.0000

     PERCENT DISCREPANCY =           0.00         PERCENT DISCREPANCY =           0.00



1
  VOLUMETRIC BUDGET FOR ENTIRE MODEL AT END OF TIME STEP   30, STRESS PERIOD  34
  ------------------------------------------------------------------------------

     CUMULATIVE VOLUMES      L**3       RATES FOR THIS TIME STEP      L**3/T
     ------------------                 ------------------------

           IN:                                      IN:
           ---                                      ---
             STORAGE     =  1515716608.0000               STORAGE     =          17.9550
       CONSTANT HEAD     =           0.0000         CONSTANT HEAD     =           0.0000
     HEAD DEP BOUNDS     =    25053860.0000       HEAD DEP BOUNDS     =           0.2897
      STREAM LEAKAGE     =  1046032320.0000        STREAM LEAKAGE     =          12.4796
        UZF RECHARGE     =       73223.9531          UZF RECHARGE     =           0.0000
               GW ET     =           0.0000                 GW ET     =           0.0000
     SURFACE LEAKAGE     =           0.0000       SURFACE LEAKAGE     =           0.0000
           AG WELLS      =           0.0000             AG WELLS      =           0.0000

                TOTAL IN =  2586875904.0000                  TOTAL IN =          30.7243

          OUT:                                     OUT:
          ----                                     ----
             STORAGE     =   505118336.0000               STORAGE     =           9.8911
       CONSTANT HEAD     =           0.0000         CONSTANT HEAD     =           0.0000
     HEAD DEP BOUNDS     =    25101616.0000       HEAD DEP BOUNDS     =           0.2887
      STREAM LEAKAGE     =   854780352.0000        STREAM LEAKAGE     =           9.3245
        UZF RECHARGE     =           0.0000          UZF RECHARGE     =           0.0000
               GW ET     =           0.0000                 GW ET     =           0.0000
     SURFACE LEAKAGE     =           0.0000       SURFACE LEAKAGE     =           0.0000
           AG WELLS      =  1201881984.0000             AG WELLS      =          11.2200

               TOTAL OUT =  2586882304.0000                 TOTAL OUT =          30.7243

                IN - OUT =       -6400.0000                  IN - OUT =      -2.4796E-05

     PERCENT DISCREPANCY =          -0.00         PERCENT DISCREPANCY =          -0.00






         TIME SUMMARY AT END OF TIME STEP   30 IN STRESS PERIOD   34
                    SECONDS     MINUTES      HOURS       DAYS        YEARS
                    -----------------------------------------------------------
   TIME STEP LENGTH  87667.      1461.1      24.352      1.0147     2.77799E-03
 STRESS PERIOD TIME 2.63000E+06  43833.      730.56      30.440     8.33397E-02
         TOTAL TIME 8.68762E+07 1.44794E+06  24132.      1005.5      2.7529    
1
1
                            STRESS PERIOD NO.   35, LENGTH =   2630000.    
                            -----------------------------------------------

                              NUMBER OF TIME STEPS =    30

                               MULTIPLIER FOR DELT =     1.000

                            INITIAL TIME STEP SIZE =   87666.66    

 REUSING NON-PARAMETER GHB CELLS FROM LAST STRESS PERIOD

      2 GHB CELLS

 REUSING STREAM SEGMENT DATA FROM LAST STRESS PERIOD



            AREAL INFILTRATION RATE
 READING ON UNIT   19 WITH FORMAT: (FREE)              

            1           2           3           4           5           6           7           8           9          10
 ........................................................................................................................
   1   1.0000E-10  2.0000E-10   0.000       0.000       0.000       0.000       0.000       0.000       0.000       0.000    
   2   2.0000E-10  1.0000E-10  2.0000E-10   0.000       0.000      8.0000E-10  8.0000E-10  5.0000E-10   0.000       0.000    
   3    0.000      5.0000E-10  1.0000E-10  1.0000E-10  8.0000E-10  8.0000E-10  5.0000E-10  5.0000E-10   0.000       0.000    
   4   8.0000E-10  5.0000E-10  1.0000E-10  1.0000E-10  1.0000E-10  1.0000E-10  1.0000E-10  1.0000E-10  2.0000E-10   0.000    
   5   8.0000E-10  5.0000E-10  1.0000E-10  1.0000E-10  1.0000E-10  1.0000E-10  1.0000E-10  1.0000E-10  1.0000E-10  1.0000E-10
   6   8.0000E-10  5.0000E-10  5.0000E-10  2.0000E-10  2.0000E-10  1.0000E-10  1.0000E-10  1.0000E-10  1.0000E-10  5.0000E-10
   7   8.0000E-10  5.0000E-10  5.0000E-10  2.0000E-10  2.0000E-10  1.0000E-10  1.0000E-10  2.0000E-10  2.0000E-10   0.000    
   8    0.000      5.0000E-10  5.0000E-10  2.0000E-10  2.0000E-10  1.0000E-10  1.0000E-10  2.0000E-10  5.0000E-10   0.000    
   9    0.000      5.0000E-10  5.0000E-10  2.0000E-10  2.0000E-10  1.0000E-10  1.0000E-10  2.0000E-10  5.0000E-10   0.000    
  10    0.000      5.0000E-10  5.0000E-10  2.0000E-10  2.0000E-10  1.0000E-10  1.0000E-10  2.0000E-10  5.0000E-10  8.0000E-10
  11    0.000      1.0000E-10  1.0000E-10  1.0000E-10  1.0000E-10  1.0000E-10  1.0000E-10  2.0000E-10  5.0000E-10   0.000    
  12   1.0000E-10  1.0000E-10  1.0000E-10  1.0000E-10  1.0000E-10  1.0000E-10  1.0000E-10  1.0000E-10  2.0000E-10   0.000    
  13   1.0000E-10  1.0000E-10  2.0000E-10  2.0000E-10  2.0000E-10  2.0000E-10  2.0000E-10  1.0000E-10  1.0000E-10   0.000    
  14    0.000      2.0000E-10  5.0000E-10  5.0000E-10  5.0000E-10  5.0000E-10  5.0000E-10  2.0000E-10  1.0000E-10   0.000    
  15    0.000       0.000      8.0000E-10  8.0000E-10  8.0000E-10  8.0000E-10   0.000       0.000       0.000       0.000    

                  ET RATE =  5.000000E-09

 USING ET EXTINCTION DEPTH FROM PREVIOUS STRESS PERIOD. CURRENT PERIOD IS:      35

 USING EXTINCTION WATER CONTENT FROM PREVIOUS STRESS PERIOD. CURRENT PERIOD IS:      35

 USING AIR ENTRY PRESSURE FROM PREVIOUS STRESS PERIOD. CURRENT PERIOD IS:      35

 USING ROOT PRESSURE HEAD FROM PREVIOUS STRESS PERIOD. CURRENT PERIOD IS:      35

 USING ROOT ACTIVITY FROM PREVIOUS STRESS PERIOD. CURRENT PERIOD IS:      35

 PROCESSING AG STRESS PERIOD DATA

 READING AG STRESS PERIOD DATA

 READING IRRIGATION SEGMENT

 READING IRRIGATION WELL

 READING SUPPLEMENTAL WELL

 NO IRRPOND OR REUSING IRRPOND DATA FROM LAST STRESS PERIOD

 END PROCESSING AG STRESS PERIOD DATA OPTIONS
 
 SOLVING FOR HEAD 
                                                   Max.-Head-Change                         Max.-Flux-Residual
  Residual-Control   Outer-Iter.   Inner-Iter.     Column Row Layer    Maximum-Head-Change  Column Row Layer    Maximum-Flux-Residual          L2-NORM 
          0                 1           2             4    7     1       0.7365045931E-01       4    7    1         0.3866382630E+01      0.8695547834E+01
          0                 2           2             4    7     1      -0.7164240133E-02       4    7    1        -0.3866422739E+00      0.8695540264E+00
          0                 3           2             4    7     1       0.4878576189E-03       4    7    1         0.2706493292E-01      0.6086874223E-01
          0                 4           1             4    7     1      -0.1941231344E-04       4    7    1        -0.1106957473E-02      0.2489532786E-02

    ------------------------------------------------
       NWT REQUIRED            4 OUTER ITERATIONS 
       AND A TOTAL OF          7 INNER ITERATIONS.
    ------------------------------------------------

 NO OUTPUT CONTROL FOR STRESS PERIOD   35   TIME STEP    1
 
 SOLVING FOR HEAD 
                                                   Max.-Head-Change                         Max.-Flux-Residual
  Residual-Control   Outer-Iter.   Inner-Iter.     Column Row Layer    Maximum-Head-Change  Column Row Layer    Maximum-Flux-Residual          L2-NORM 
          0                 1           2             4    7     1       0.7287372326E-01       4    7    1         0.3826623768E+01      0.8530271746E+01
          0                 2           2             4    7     1      -0.7088686804E-02       4    7    1        -0.3826665144E+00      0.8530204580E+00
          0                 3           2             4    7     1       0.4827126985E-03       4    7    1         0.2678662842E-01      0.5971081032E-01
          0                 4           1             4    7     1      -0.1920759274E-04       4    7    1        -0.1095574818E-02      0.2442137839E-02

    ------------------------------------------------
       NWT REQUIRED            4 OUTER ITERATIONS 
       AND A TOTAL OF          7 INNER ITERATIONS.
    ------------------------------------------------

 NO OUTPUT CONTROL FOR STRESS PERIOD   35   TIME STEP    2
 
 SOLVING FOR HEAD 
                                                   Max.-Head-Change                         Max.-Flux-Residual
  Residual-Control   Outer-Iter.   Inner-Iter.     Column Row Layer    Maximum-Head-Change  Column Row Layer    Maximum-Flux-Residual          L2-NORM 
          0                 1           2             4    7     1       0.7208713812E-01       4    7    1         0.3786265258E+01      0.8370709596E+01
          0                 2           2             4    7     1      -0.7012175099E-02       4    7    1        -0.3786307681E+00      0.8370570884E+00
          0                 3           2             4    7     1       0.4775025195E-03       4    7    1         0.2650412509E-01      0.5859272422E-01
          0                 4           1             4    7     1      -0.1900027452E-04       4    7    1        -0.1084020402E-02      0.2396364485E-02

    ------------------------------------------------
       NWT REQUIRED            4 OUTER ITERATIONS 
       AND A TOTAL OF          7 INNER ITERATIONS.
    ------------------------------------------------

 NO OUTPUT CONTROL FOR STRESS PERIOD   35   TIME STEP    3
 
 SOLVING FOR HEAD 
                                                   Max.-Head-Change                         Max.-Flux-Residual
  Residual-Control   Outer-Iter.   Inner-Iter.     Column Row Layer    Maximum-Head-Change  Column Row Layer    Maximum-Flux-Residual          L2-NORM 
          0                 1           2             4    7     1       0.7129246224E-01       4    7    1         0.3745403262E+01      0.8212479303E+01
          0                 2           2             4    7     1      -0.6934876087E-02       4    7    1        -0.3745446532E+00      0.8212361362E+00
          0                 3           2             4    7     1       0.4722387309E-03       4    7    1         0.2621809610E-01      0.5748539826E-01
          0                 4           1             4    7     1      -0.1879082380E-04       4    7    1        -0.1072321823E-02      0.2351100509E-02

    ------------------------------------------------
       NWT REQUIRED            4 OUTER ITERATIONS 
       AND A TOTAL OF          7 INNER ITERATIONS.
    ------------------------------------------------

 NO OUTPUT CONTROL FOR STRESS PERIOD   35   TIME STEP    4
 
 SOLVING FOR HEAD 
                                                   Max.-Head-Change                         Max.-Flux-Residual
  Residual-Control   Outer-Iter.   Inner-Iter.     Column Row Layer    Maximum-Head-Change  Column Row Layer    Maximum-Flux-Residual          L2-NORM 
          0                 1           2             4    7     1       0.7049107637E-01       4    7    1         0.3704114537E+01      0.8059974704E+01
          0                 2           2             4    7     1      -0.6856924104E-02       4    7    1        -0.3704158471E+00      0.8059872872E+00
          0                 3           2             4    7     1       0.4669304800E-03       4    7    1         0.2592907893E-01      0.5641810215E-01
          0                 4           1             4    7     1      -0.1857960345E-04       4    7    1        -0.1060500995E-02      0.2307431090E-02

    ------------------------------------------------
       NWT REQUIRED            4 OUTER ITERATIONS 
       AND A TOTAL OF          7 INNER ITERATIONS.
    ------------------------------------------------

 NO OUTPUT CONTROL FOR STRESS PERIOD   35   TIME STEP    5
 
 SOLVING FOR HEAD 
                                                   Max.-Head-Change                         Max.-Flux-Residual
  Residual-Control   Outer-Iter.   Inner-Iter.     Column Row Layer    Maximum-Head-Change  Column Row Layer    Maximum-Flux-Residual          L2-NORM 
          0                 1           2             4    7     1       0.6968440139E-01       4    7    1         0.3662477879E+01      0.7912867186E+01
          0                 2           2             4    7     1      -0.6778457388E-02       4    7    1        -0.3662522312E+00      0.7912779113E+00
          0                 3           2             4    7     1       0.4615871799E-03       4    7    1         0.2563762521E-01      0.5538853094E-01
          0                 4           1             4    7     1      -0.1836698845E-04       4    7    1        -0.1048580521E-02      0.2265308997E-02

    ------------------------------------------------
       NWT REQUIRED            4 OUTER ITERATIONS 
       AND A TOTAL OF          7 INNER ITERATIONS.
    ------------------------------------------------

 NO OUTPUT CONTROL FOR STRESS PERIOD   35   TIME STEP    6
 
 SOLVING FOR HEAD 
                                                   Max.-Head-Change                         Max.-Flux-Residual
  Residual-Control   Outer-Iter.   Inner-Iter.     Column Row Layer    Maximum-Head-Change  Column Row Layer    Maximum-Flux-Residual          L2-NORM 
          0                 1           2             4    7     1       0.6887376132E-01       4    7    1         0.3620566956E+01      0.7770851320E+01
          0                 2           2             4    7     1      -0.6699604753E-02       4    7    1        -0.3620611740E+00      0.7770775559E+00
          0                 3           2             4    7     1       0.4562176024E-03       4    7    1         0.2534425075E-01      0.5439459986E-01
          0                 4           1             4    7     1      -0.1815332785E-04       4    7    1        -0.1036581487E-02      0.2224649727E-02

    ------------------------------------------------
       NWT REQUIRED            4 OUTER ITERATIONS 
       AND A TOTAL OF          7 INNER ITERATIONS.
    ------------------------------------------------

 NO OUTPUT CONTROL FOR STRESS PERIOD   35   TIME STEP    7
 
 SOLVING FOR HEAD 
                                                   Max.-Head-Change                         Max.-Flux-Residual
  Residual-Control   Outer-Iter.   Inner-Iter.     Column Row Layer    Maximum-Head-Change  Column Row Layer    Maximum-Flux-Residual          L2-NORM 
          0                 1           2             4    7     1       0.6806039043E-01       4    7    1         0.3578450418E+01      0.7633639352E+01
          0                 2           2             4    7     1      -0.6620486284E-02       4    7    1        -0.3578495418E+00      0.7633574042E+00
          0                 3           2             4    7     1       0.4508299246E-03       4    7    1         0.2504943616E-01      0.5343429754E-01
          0                 4           1             4    7     1      -0.1793894714E-04       4    7    1        -0.1024523554E-02      0.2185434644E-02

    ------------------------------------------------
       NWT REQUIRED            4 OUTER ITERATIONS 
       AND A TOTAL OF          7 INNER ITERATIONS.
    ------------------------------------------------

 NO OUTPUT CONTROL FOR STRESS PERIOD   35   TIME STEP    8
 
 SOLVING FOR HEAD 
                                                   Max.-Head-Change                         Max.-Flux-Residual
  Residual-Control   Outer-Iter.   Inner-Iter.     Column Row Layer    Maximum-Head-Change  Column Row Layer    Maximum-Flux-Residual          L2-NORM 
          0                 1           2             4    7     1       0.6724529990E-01       4    7    1         0.3536185050E+01      0.7500965350E+01
          0                 2           2             4    7     1      -0.6541200358E-02       4    7    1        -0.3536230143E+00      0.7500909640E+00
          0                 3           2             4    7     1       0.4454308457E-03       4    7    1         0.2475357904E-01      0.5250569393E-01
          0                 4           1             4    7     1      -0.1772411282E-04       4    7    1        -0.1012422982E-02      0.2147440084E-02

    ------------------------------------------------
       NWT REQUIRED            4 OUTER ITERATIONS 
       AND A TOTAL OF          7 INNER ITERATIONS.
    ------------------------------------------------

 NO OUTPUT CONTROL FOR STRESS PERIOD   35   TIME STEP    9
 
 SOLVING FOR HEAD 
                                                   Max.-Head-Change                         Max.-Flux-Residual
  Residual-Control   Outer-Iter.   Inner-Iter.     Column Row Layer    Maximum-Head-Change  Column Row Layer    Maximum-Flux-Residual          L2-NORM 
          0                 1           2             4    7     1       0.6642982493E-01       4    7    1         0.3493844912E+01      0.7372596526E+01
          0                 2           2             4    7     1      -0.6461876874E-02       4    7    1        -0.3493889992E+00      0.7372548735E+00
          0                 3           2             4    7     1       0.4400292105E-03       4    7    1         0.2445719784E-01      0.5160724824E-01
          0                 4           1             4    7     1      -0.1750917719E-04       4    7    1        -0.1000300990E-02      0.2110702346E-02

    ------------------------------------------------
       NWT REQUIRED            4 OUTER ITERATIONS 
       AND A TOTAL OF          7 INNER ITERATIONS.
    ------------------------------------------------

 NO OUTPUT CONTROL FOR STRESS PERIOD   35   TIME STEP   10
 
 SOLVING FOR HEAD 
                                                   Max.-Head-Change                         Max.-Flux-Residual
  Residual-Control   Outer-Iter.   Inner-Iter.     Column Row Layer    Maximum-Head-Change  Column Row Layer    Maximum-Flux-Residual          L2-NORM 
          0                 1           2             4    7     1       0.6561467351E-01       4    7    1         0.3451470387E+01      0.7248291409E+01
          0                 2           2             4    7     1      -0.6382584718E-02       4    7    1        -0.3451515355E+00      0.7248251050E+00
          0                 3           2             4    7     1       0.4346297102E-03       4    7    1         0.2416057538E-01      0.5073720416E-01
          0                 4           1             4    7     1      -0.1729432560E-04       4    7    1        -0.9881690969E-03      0.2075121958E-02

    ------------------------------------------------
       NWT REQUIRED            4 OUTER ITERATIONS 
       AND A TOTAL OF          7 INNER ITERATIONS.
    ------------------------------------------------

 NO OUTPUT CONTROL FOR STRESS PERIOD   35   TIME STEP   11
 
 SOLVING FOR HEAD 
                                                   Max.-Head-Change                         Max.-Flux-Residual
  Residual-Control   Outer-Iter.   Inner-Iter.     Column Row Layer    Maximum-Head-Change  Column Row Layer    Maximum-Flux-Residual          L2-NORM 
          0                 1           2             4    7     1       0.6480102599E-01       4    7    1         0.3409127035E+01      0.7127856961E+01
          0                 2           2             4    7     1      -0.6303438721E-02       4    7    1        -0.3409171805E+00      0.7127822641E+00
          0                 3           2             4    7     1       0.4292401640E-03       4    7    1         0.2386417058E-01      0.4989429694E-01
          0                 4           1             4    7     1      -0.1707987086E-04       4    7    1        -0.9760461433E-03      0.2040700899E-02

    ------------------------------------------------
       NWT REQUIRED            4 OUTER ITERATIONS 
       AND A TOTAL OF          7 INNER ITERATIONS.
    ------------------------------------------------

 NO OUTPUT CONTROL FOR STRESS PERIOD   35   TIME STEP   12
 
 SOLVING FOR HEAD 
                                                   Max.-Head-Change                         Max.-Flux-Residual
  Residual-Control   Outer-Iter.   Inner-Iter.     Column Row Layer    Maximum-Head-Change  Column Row Layer    Maximum-Flux-Residual          L2-NORM 
          0                 1           2             4    7     1       0.6398944779E-01       4    7    1         0.3366847199E+01      0.7011091880E+01
          0                 2           2             4    7     1      -0.6224493897E-02       4    7    1        -0.3366891693E+00      0.7011063154E+00
          0                 3           2             4    7     1       0.4238643179E-03       4    7    1         0.2356820992E-01      0.4907699029E-01
          0                 4           1             4    7     1      -0.1686596078E-04       4    7    1        -0.9639413272E-03      0.2007230473E-02

    ------------------------------------------------
       NWT REQUIRED            4 OUTER ITERATIONS 
       AND A TOTAL OF          7 INNER ITERATIONS.
    ------------------------------------------------

 NO OUTPUT CONTROL FOR STRESS PERIOD   35   TIME STEP   13
 
 SOLVING FOR HEAD 
                                                   Max.-Head-Change                         Max.-Flux-Residual
  Residual-Control   Outer-Iter.   Inner-Iter.     Column Row Layer    Maximum-Head-Change  Column Row Layer    Maximum-Flux-Residual          L2-NORM 
          0                 1           2             4    7     1       0.6318084676E-01       4    7    1         0.3324681840E+01      0.6897813222E+01
          0                 2           2             4    7     1      -0.6145838568E-02       4    7    1        -0.3324725989E+00      0.6897789168E+00
          0                 3           2             4    7     1       0.4185081863E-03       4    7    1         0.2327305019E-01      0.4828411879E-01
          0                 4           1             4    7     1      -0.1665283542E-04       4    7    1        -0.9518692787E-03      0.1974799578E-02

    ------------------------------------------------
       NWT REQUIRED            4 OUTER ITERATIONS 
       AND A TOTAL OF          7 INNER ITERATIONS.
    ------------------------------------------------

 NO OUTPUT CONTROL FOR STRESS PERIOD   35   TIME STEP   14
 
 SOLVING FOR HEAD 
                                                   Max.-Head-Change                         Max.-Flux-Residual
  Residual-Control   Outer-Iter.   Inner-Iter.     Column Row Layer    Maximum-Head-Change  Column Row Layer    Maximum-Flux-Residual          L2-NORM 
          0                 1           2             4    7     1       0.6237593087E-01       4    7    1         0.3282670813E+01      0.6787862467E+01
          0                 2           2             4    7     1      -0.6067541613E-02       4    7    1        -0.3282714558E+00      0.6787842869E+00
          0                 3           2             4    7     1       0.4131764600E-03       4    7    1         0.2297897044E-01      0.4751452592E-01
          0                 4           1             4    7     1      -0.1644068081E-04       4    7    1        -0.9398413924E-03      0.1943305494E-02

    ------------------------------------------------
       NWT REQUIRED            4 OUTER ITERATIONS 
       AND A TOTAL OF          7 INNER ITERATIONS.
    ------------------------------------------------

 NO OUTPUT CONTROL FOR STRESS PERIOD   35   TIME STEP   15
 
 SOLVING FOR HEAD 
                                                   Max.-Head-Change                         Max.-Flux-Residual
  Residual-Control   Outer-Iter.   Inner-Iter.     Column Row Layer    Maximum-Head-Change  Column Row Layer    Maximum-Flux-Residual          L2-NORM 
          0                 1           2             4    7     1       0.6157534730E-01       4    7    1         0.3240850829E+01      0.6681077698E+01
          0                 2           2             4    7     1      -0.5989665995E-02       4    7    1        -0.3240894115E+00      0.6681061554E+00
          0                 3           2             4    7     1       0.4078734256E-03       4    7    1         0.2268622765E-01      0.4676707466E-01
          0                 4           1             4    7     1      -0.1622966815E-04       4    7    1        -0.9278681889E-03      0.1912747892E-02

    ------------------------------------------------
       NWT REQUIRED            4 OUTER ITERATIONS 
       AND A TOTAL OF          7 INNER ITERATIONS.
    ------------------------------------------------

 NO OUTPUT CONTROL FOR STRESS PERIOD   35   TIME STEP   16
 
 SOLVING FOR HEAD 
                                                   Max.-Head-Change                         Max.-Flux-Residual
  Residual-Control   Outer-Iter.   Inner-Iter.     Column Row Layer    Maximum-Head-Change  Column Row Layer    Maximum-Flux-Residual          L2-NORM 
          0                 1           2             4    7     1       0.6077968826E-01       4    7    1         0.3199255440E+01      0.6577315322E+01
          0                 2           2             4    7     1      -0.5912269329E-02       4    7    1        -0.3199298221E+00      0.6577302515E+00
          0                 3           2             4    7     1       0.4026030064E-03       4    7    1         0.2239505673E-01      0.4604078861E-01
          0                 4           1             4    7     1      -0.1601995309E-04       4    7    1        -0.9159592805E-03      0.1883038330E-02

    ------------------------------------------------
       NWT REQUIRED            4 OUTER ITERATIONS 
       AND A TOTAL OF          7 INNER ITERATIONS.
    ------------------------------------------------

 NO OUTPUT CONTROL FOR STRESS PERIOD   35   TIME STEP   17
 
 SOLVING FOR HEAD 
                                                   Max.-Head-Change                         Max.-Flux-Residual
  Residual-Control   Outer-Iter.   Inner-Iter.     Column Row Layer    Maximum-Head-Change  Column Row Layer    Maximum-Flux-Residual          L2-NORM 
          0                 1           2             4    7     1       0.5998962232E-01       4    7    1         0.3157922574E+01      0.6476438232E+01
          0                 2           2             4    7     1      -0.5835416661E-02       4    7    1        -0.3157964810E+00      0.6476427958E+00
          0                 3           2             4    7     1       0.3973696327E-03       4    7    1         0.2210572325E-01      0.4533469002E-01
          0                 4           1             4    7     1      -0.1581171236E-04       4    7    1        -0.9041255296E-03      0.1854172244E-02

    ------------------------------------------------
       NWT REQUIRED            4 OUTER ITERATIONS 
       AND A TOTAL OF          7 INNER ITERATIONS.
    ------------------------------------------------

 NO OUTPUT CONTROL FOR STRESS PERIOD   35   TIME STEP   18
 
 SOLVING FOR HEAD 
                                                   Max.-Head-Change                         Max.-Flux-Residual
  Residual-Control   Outer-Iter.   Inner-Iter.     Column Row Layer    Maximum-Head-Change  Column Row Layer    Maximum-Flux-Residual          L2-NORM 
          0                 1           2             4    7     1       0.5920536838E-01       4    7    1         0.3116865234E+01      0.6378317149E+01
          0                 2           2             4    7     1      -0.5759129288E-02       4    7    1        -0.3116906890E+00      0.6378308711E+00
          0                 3           2             4    7     1       0.3921747538E-03       4    7    1         0.2181831824E-01      0.4464780502E-01
          0                 4           1             4    7     1      -0.1560500340E-04       4    7    1        -0.8923706509E-03      0.1826079909E-02

    ------------------------------------------------
       NWT REQUIRED            4 OUTER ITERATIONS 
       AND A TOTAL OF          7 INNER ITERATIONS.
    ------------------------------------------------

 NO OUTPUT CONTROL FOR STRESS PERIOD   35   TIME STEP   19
 
 SOLVING FOR HEAD 
                                                   Max.-Head-Change                         Max.-Flux-Residual
  Residual-Control   Outer-Iter.   Inner-Iter.     Column Row Layer    Maximum-Head-Change  Column Row Layer    Maximum-Flux-Residual          L2-NORM 
          0                 1           2             4    7     1       0.5842763920E-01       4    7    1         0.3076123655E+01      0.6282833748E+01
          0                 2           2             4    7     1      -0.5683476553E-02       4    7    1        -0.3076164700E+00      0.6282828207E+00
          0                 3           2             4    7     1       0.3870230917E-03       4    7    1         0.2153312337E-01      0.4397953639E-01
          0                 4           1             4    7     1      -0.1540001388E-04       4    7    1        -0.8807061492E-03      0.1798743003E-02

    ------------------------------------------------
       NWT REQUIRED            4 OUTER ITERATIONS 
       AND A TOTAL OF          7 INNER ITERATIONS.
    ------------------------------------------------

 NO OUTPUT CONTROL FOR STRESS PERIOD   35   TIME STEP   20
 
 SOLVING FOR HEAD 
                                                   Max.-Head-Change                         Max.-Flux-Residual
  Residual-Control   Outer-Iter.   Inner-Iter.     Column Row Layer    Maximum-Head-Change  Column Row Layer    Maximum-Flux-Residual          L2-NORM 
          0                 1           2             4    7     1       0.5765669068E-01       4    7    1         0.3035713127E+01      0.6189874814E+01
          0                 2           2             4    7     1      -0.5608483352E-02       4    7    1        -0.3035753537E+00      0.6189870768E+00
          0                 3           2             4    7     1       0.3819163417E-03       4    7    1         0.2125024570E-01      0.4332883824E-01
          0                 4           1             4    7     1      -0.1519681159E-04       4    7    1        -0.8691364385E-03      0.1772126493E-02

    ------------------------------------------------
       NWT REQUIRED            4 OUTER ITERATIONS 
       AND A TOTAL OF          7 INNER ITERATIONS.
    ------------------------------------------------

 NO OUTPUT CONTROL FOR STRESS PERIOD   35   TIME STEP   21
 
 SOLVING FOR HEAD 
                                                   Max.-Head-Change                         Max.-Flux-Residual
  Residual-Control   Outer-Iter.   Inner-Iter.     Column Row Layer    Maximum-Head-Change  Column Row Layer    Maximum-Flux-Residual          L2-NORM 
          0                 1           2             4    7     1       0.5689301818E-01       4    7    1         0.2995661365E+01      0.6099344024E+01
          0                 2           2             4    7     1      -0.5534197880E-02       4    7    1        -0.2995701119E+00      0.6099341782E+00
          0                 3           2             4    7     1       0.3768577858E-03       4    7    1         0.2096987927E-01      0.4269516199E-01
          0                 4           1             4    7     1      -0.1499552629E-04       4    7    1        -0.8576694199E-03      0.1746216119E-02

    ------------------------------------------------
       NWT REQUIRED            4 OUTER ITERATIONS 
       AND A TOTAL OF          7 INNER ITERATIONS.
    ------------------------------------------------

 NO OUTPUT CONTROL FOR STRESS PERIOD   35   TIME STEP   22
 
 SOLVING FOR HEAD 
                                                   Max.-Head-Change                         Max.-Flux-Residual
  Residual-Control   Outer-Iter.   Inner-Iter.     Column Row Layer    Maximum-Head-Change  Column Row Layer    Maximum-Flux-Residual          L2-NORM 
          0                 1           2             4    7     1       0.5613679948E-01       4    7    1         0.2955979606E+01      0.6011131601E+01
          0                 2           2             4    7     1      -0.5460637432E-02       4    7    1        -0.2956018686E+00      0.6011130828E+00
          0                 3           2             4    7     1       0.3718486019E-03       4    7    1         0.2069210276E-01      0.4207770342E-01
          0                 4           1             4    7     1      -0.1479620634E-04       4    7    1        -0.8463083591E-03      0.1720980719E-02

    ------------------------------------------------
       NWT REQUIRED            4 OUTER ITERATIONS 
       AND A TOTAL OF          7 INNER ITERATIONS.
    ------------------------------------------------

 NO OUTPUT CONTROL FOR STRESS PERIOD   35   TIME STEP   23
 
 SOLVING FOR HEAD 
                                                   Max.-Head-Change                         Max.-Flux-Residual
  Residual-Control   Outer-Iter.   Inner-Iter.     Column Row Layer    Maximum-Head-Change  Column Row Layer    Maximum-Flux-Residual          L2-NORM 
          0                 1           2             4    7     1       0.5538844616E-01       4    7    1         0.2916691516E+01      0.5925144969E+01
          0                 2           2             4    7     1      -0.5387842051E-02       4    7    1        -0.2916729909E+00      0.5925145419E+00
          0                 3           2             4    7     1       0.3668915163E-03       4    7    1         0.2041708186E-01      0.4147582506E-01
          0                 4           1             4    7     1      -0.1459895960E-04       4    7    1        -0.8350599837E-03      0.1696361985E-02

    ------------------------------------------------
       NWT REQUIRED            4 OUTER ITERATIONS 
       AND A TOTAL OF          7 INNER ITERATIONS.
    ------------------------------------------------

 NO OUTPUT CONTROL FOR STRESS PERIOD   35   TIME STEP   24
 
 SOLVING FOR HEAD 
                                                   Max.-Head-Change                         Max.-Flux-Residual
  Residual-Control   Outer-Iter.   Inner-Iter.     Column Row Layer    Maximum-Head-Change  Column Row Layer    Maximum-Flux-Residual          L2-NORM 
          0                 1           2             4    7     1       0.5464820784E-01       4    7    1         0.2877811213E+01      0.5841307343E+01
          0                 2           2             4    7     1      -0.5315836023E-02       4    7    1        -0.2877848908E+00      0.5841308629E+00
          0                 3           2             4    7     1       0.3619881823E-03       4    7    1         0.2014491538E-01      0.4088897282E-01
          0                 4           1             4    7     1      -0.1440385090E-04       4    7    1        -0.8239283404E-03      0.1672325153E-02

    ------------------------------------------------
       NWT REQUIRED            4 OUTER ITERATIONS 
       AND A TOTAL OF          7 INNER ITERATIONS.
    ------------------------------------------------

 NO OUTPUT CONTROL FOR STRESS PERIOD   35   TIME STEP   25
 
 SOLVING FOR HEAD 
                                                   Max.-Head-Change                         Max.-Flux-Residual
  Residual-Control   Outer-Iter.   Inner-Iter.     Column Row Layer    Maximum-Head-Change  Column Row Layer    Maximum-Flux-Residual          L2-NORM 
          0                 1           2             4    7     1       0.5391629810E-01       4    7    1         0.2839351640E+01      0.5759531388E+01
          0                 2           2             4    7     1      -0.5244640125E-02       4    7    1        -0.2839388628E+00      0.5759533702E+00
          0                 3           2             4    7     1       0.3571400163E-03       4    7    1         0.1987569398E-01      0.4031655750E-01
          0                 4           1             4    7     1      -0.1421093814E-04       4    7    1        -0.8129171858E-03      0.1648937214E-02

    ------------------------------------------------
       NWT REQUIRED            4 OUTER ITERATIONS 
       AND A TOTAL OF          7 INNER ITERATIONS.
    ------------------------------------------------

 NO OUTPUT CONTROL FOR STRESS PERIOD   35   TIME STEP   26
 
 SOLVING FOR HEAD 
                                                   Max.-Head-Change                         Max.-Flux-Residual
  Residual-Control   Outer-Iter.   Inner-Iter.     Column Row Layer    Maximum-Head-Change  Column Row Layer    Maximum-Flux-Residual          L2-NORM 
          0                 1           2             4    7     1       0.5319289648E-01       4    7    1         0.2801323869E+01      0.5679735981E+01
          0                 2           2             4    7     1      -0.5174271827E-02       4    7    1        -0.2801360145E+00      0.5679738945E+00
          0                 3           2             4    7     1       0.3523482057E-03       4    7    1         0.1960949515E-01      0.3975811851E-01
          0                 4           1             4    7     1      -0.1402026692E-04       4    7    1        -0.8020296143E-03      0.1626109566E-02

    ------------------------------------------------
       NWT REQUIRED            4 OUTER ITERATIONS 
       AND A TOTAL OF          7 INNER ITERATIONS.
    ------------------------------------------------

 NO OUTPUT CONTROL FOR STRESS PERIOD   35   TIME STEP   27
 
 SOLVING FOR HEAD 
                                                   Max.-Head-Change                         Max.-Flux-Residual
  Residual-Control   Outer-Iter.   Inner-Iter.     Column Row Layer    Maximum-Head-Change  Column Row Layer    Maximum-Flux-Residual          L2-NORM 
          0                 1           2             4    7     1       0.5247829534E-01       4    7    1         0.2763744440E+01      0.5601853911E+01
          0                 2           2             4    7     1      -0.5104759571E-02       4    7    1        -0.2763780001E+00      0.5601858411E+00
          0                 3           2             4    7     1       0.3476146896E-03       4    7    1         0.1934643472E-01      0.3921285057E-01
          0                 4           1             4    7     1      -0.1383191644E-04       4    7    1        -0.7912704425E-03      0.1603802487E-02

    ------------------------------------------------
       NWT REQUIRED            4 OUTER ITERATIONS 
       AND A TOTAL OF          7 INNER ITERATIONS.
    ------------------------------------------------

 NO OUTPUT CONTROL FOR STRESS PERIOD   35   TIME STEP   28
 
 SOLVING FOR HEAD 
                                                   Max.-Head-Change                         Max.-Flux-Residual
  Residual-Control   Outer-Iter.   Inner-Iter.     Column Row Layer    Maximum-Head-Change  Column Row Layer    Maximum-Flux-Residual          L2-NORM 
          0                 1           2             4    7     1       0.5177235411E-01       4    7    1         0.2726606824E+01      0.5525800486E+01
          0                 2           2             4    7     1      -0.5036089686E-02       4    7    1        -0.2726641669E+00      0.5525804492E+00
          0                 3           2             4    7     1       0.3429385353E-03       4    7    1         0.1908646696E-01      0.3868047878E-01
          0                 4           1             4    7     1      -0.1364584755E-04       4    7    1        -0.7806377357E-03      0.1582028499E-02

    ------------------------------------------------
       NWT REQUIRED            4 OUTER ITERATIONS 
       AND A TOTAL OF          7 INNER ITERATIONS.
    ------------------------------------------------

 NO OUTPUT CONTROL FOR STRESS PERIOD   35   TIME STEP   29
 
 SOLVING FOR HEAD 
                                                   Max.-Head-Change                         Max.-Flux-Residual
  Residual-Control   Outer-Iter.   Inner-Iter.     Column Row Layer    Maximum-Head-Change  Column Row Layer    Maximum-Flux-Residual          L2-NORM 
          0                 1           2             4    7     1       0.5107545254E-01       4    7    1         0.2689932652E+01      0.5451525434E+01
          0                 2           2             4    7     1      -0.4968299115E-02       4    7    1        -0.2689966781E+00      0.5451529779E+00
          0                 3           2             4    7     1       0.3383222590E-03       4    7    1         0.1882974332E-01      0.3816056539E-01
          0                 4           1             4    7     1      -0.1346216135E-04       4    7    1        -0.7701377185E-03      0.1560767105E-02

    ------------------------------------------------
       NWT REQUIRED            4 OUTER ITERATIONS 
       AND A TOTAL OF          7 INNER ITERATIONS.
    ------------------------------------------------

 NO OUTPUT CONTROL FOR STRESS PERIOD   35   TIME STEP   30



 STREAM LISTING     PERIOD     35   STEP       30

 LAYER ROW COL. STREAM  RCH.  FLOW INTO     FLOW TO   FLOW OUT OF   OVRLND.     DIRECT     STREAM       STREAM     STREAM     STREAM   STREAMBED  STREAMBED
                SEG.NO.  NO.  STRM. RCH.    AQUIFER    STRM. RCH.    RUNOFF     PRECIP       ET          HEAD       DEPTH      WIDTH   CONDCTNC.   GRADIENT

   1    1    1     1     1    1.3125E+01  1.7336E-01   1.2951E+01  0.000E+00  0.000E+00  0.000E+00  1.09402E+03  9.718E-01  9.699E+00  4.365E-02  1.324E+00
   1    2    2     1     2    1.2951E+01  2.6707E-01   1.2684E+01  0.000E+00  0.000E+00  0.000E+00  1.08903E+03  9.671E-01  9.617E+00  6.732E-02  1.322E+00
   1    3    3     1     3    1.2684E+01  2.2640E-01   1.2458E+01  0.000E+00  0.000E+00  0.000E+00  1.08338E+03  9.616E-01  9.525E+00  5.715E-02  1.321E+00
   1    3    4     1     4    1.2458E+01  2.0736E-01   1.2250E+01  0.000E+00  0.000E+00  0.000E+00  1.07836E+03  9.568E-01  9.443E+00  5.241E-02  1.319E+00
   1    4    5     2     1    1.0250E+01  2.8870E-01   9.9617E+00  0.000E+00  0.000E+00  0.000E+00  1.07264E+03  7.013E-01  1.200E+01  7.800E-02  1.234E+00
   1    5    6     2     2    9.9617E+00  2.2144E-01   9.7403E+00  0.000E+00  0.000E+00  0.000E+00  1.06720E+03  6.906E-01  1.200E+01  6.000E-02  1.230E+00
   1    6    6     2     3    9.7403E+00  2.2088E-01   9.5194E+00  0.000E+00  0.000E+00  0.000E+00  1.06247E+03  6.813E-01  1.200E+01  6.000E-02  1.227E+00
   1    7    6     2     4    9.5194E+00  2.2031E-01   9.2991E+00  0.000E+00  0.000E+00  0.000E+00  1.05775E+03  6.719E-01  1.200E+01  6.000E-02  1.224E+00
   1    8    6     2     5    9.2991E+00  2.1974E-01   9.0793E+00  0.000E+00  0.000E+00  0.000E+00  1.05302E+03  6.624E-01  1.200E+01  6.000E-02  1.221E+00
   1    3    5     3     1    2.0000E+00  2.8252E-01   1.7175E+00  0.000E+00  0.000E+00  0.000E+00  1.07555E+03  1.909E+00  9.636E+00  7.227E-02  1.955E+00
   1    3    6     3     2    1.7175E+00  2.4905E-01   1.4684E+00  0.000E+00  0.000E+00  0.000E+00  1.07264E+03  1.727E+00  8.909E+00  6.682E-02  1.864E+00
   1    3    7     3     3    1.4684E+00  1.9718E-01   1.2712E+00  0.000E+00  0.000E+00  0.000E+00  1.06987E+03  1.555E+00  8.218E+00  5.547E-02  1.777E+00
   1    4    8     3     4    1.2712E+00  2.2567E-01   1.0456E+00  0.000E+00  0.000E+00  0.000E+00  1.06682E+03  1.364E+00  7.455E+00  6.709E-02  1.682E+00
   1    5    8     3     5    1.0456E+00  1.5790E-01   8.8768E-01  0.000E+00  0.000E+00  0.000E+00  1.06362E+03  1.164E+00  6.655E+00  4.991E-02  1.582E+00
   1    6    8     3     6    8.8768E-01  5.5980E-02   8.3170E-01  0.000E+00  0.000E+00  0.000E+00  1.06158E+03  1.036E+00  6.145E+00  1.844E-02  1.518E+00
   1    5   10     4     1    1.0000E+01  9.0919E-02   9.9091E+00  0.000E+00  0.000E+00  0.000E+00  1.07836E+03  6.368E-01  1.000E+01  2.500E-02  1.212E+00
   1    5    9     4     2    9.9091E+00  1.8158E-01   9.7275E+00  0.000E+00  0.000E+00  0.000E+00  1.07154E+03  6.315E-01  1.000E+01  5.000E-02  1.211E+00
   1    6    8     4     3    9.7275E+00  1.2689E-01   9.6006E+00  0.000E+00  0.000E+00  0.000E+00  1.06381E+03  6.256E-01  1.000E+01  3.500E-02  1.209E+00
   1    6    8     5     1    1.0432E+01  2.2686E-01   1.0205E+01  0.000E+00  0.000E+00  0.000E+00  1.05868E+03  6.790E-01  1.542E+01  6.166E-02  1.226E+00
   1    7    7     5     2    1.0205E+01  2.7894E-01   9.9265E+00  0.000E+00  0.000E+00  0.000E+00  1.05417E+03  6.732E-01  1.519E+01  7.594E-02  1.224E+00
   1    8    7     5     3    9.9265E+00  1.9221E-01   9.7343E+00  0.000E+00  0.000E+00  0.000E+00  1.04992E+03  6.676E-01  1.497E+01  5.241E-02  1.223E+00
   1    8    6     5     4    9.7343E+00  1.3577E-01   9.5985E+00  0.000E+00  0.000E+00  0.000E+00  1.04691E+03  6.637E-01  1.482E+01  3.706E-02  1.221E+00
   1    9    6     6     1    1.8678E+01  2.4127E-01   1.8437E+01  0.000E+00  0.000E+00  0.000E+00  1.04375E+03  1.021E+00  1.200E+01  6.000E-02  1.340E+00
   1   10    7     6     2    1.8437E+01  2.4079E-01   1.8196E+01  0.000E+00  0.000E+00  0.000E+00  1.03919E+03  1.013E+00  1.200E+01  6.000E-02  1.338E+00
   1   11    7     6     3    1.8196E+01  2.4031E-01   1.7956E+01  0.000E+00  0.000E+00  0.000E+00  1.03464E+03  1.005E+00  1.200E+01  6.000E-02  1.335E+00
   1   12    7     6     4    1.7956E+01  2.3983E-01   1.7716E+01  0.000E+00  0.000E+00  0.000E+00  1.03009E+03  9.971E-01  1.200E+01  6.000E-02  1.332E+00
   1   13    7     6     5    1.7716E+01  9.9415E-03   1.7706E+01  0.000E+00  0.000E+00  0.000E+00  1.02690E+03  9.929E-01  1.200E+01  2.400E-02  1.381E-01
   1   14    9     7     1    1.5000E+02  1.3951E+00   1.4860E+02  0.000E+00  0.000E+00  0.000E+00  1.03987E+03  2.288E+00  5.529E+01  5.593E-01  8.315E-01
   1   13    8     7     2    1.4860E+02  2.0248E+00   1.4658E+02  0.000E+00  0.000E+00  0.000E+00  1.03478E+03  2.278E+00  5.525E+01  6.147E-01  1.098E+00
   1   13    7     7     3    1.4658E+02  1.7866E+00   1.4479E+02  0.000E+00  0.000E+00  0.000E+00  1.02969E+03  2.268E+00  5.521E+01  5.583E-01  1.067E+00
   1   13    6     8     1    1.6250E+02  1.1831E+00   1.6132E+02  0.000E+00  0.000E+00  0.000E+00  1.02477E+03  2.899E+00  4.203E+01  4.283E-01  9.207E-01
   1   13    5     8     2    1.6132E+02  4.2212E-01   1.6089E+02  0.000E+00  0.000E+00  0.000E+00  1.01852E+03  2.893E+00  4.195E+01  4.275E-01  3.291E-01
   1   13    4     8     3    1.6089E+02 -1.5933E+00   1.6249E+02  0.000E+00  0.000E+00  0.000E+00  1.01227E+03  2.897E+00  4.201E+01  4.281E+00 -1.241E-01
   1   13    3     8     4    1.6249E+02 -3.2454E+00   1.6573E+02  0.000E+00  0.000E+00  0.000E+00  1.00604E+03  2.913E+00  4.224E+01  4.305E+00 -2.513E-01
   1   13    2     8     5    1.6573E+02 -2.4890E+00   1.6822E+02  0.000E+00  0.000E+00  0.000E+00  9.99807E+02  2.932E+00  4.252E+01  4.333E+00 -1.915E-01
   1   13    1     8     6    1.6822E+02 -1.9730E+00   1.7019E+02  0.000E+00  0.000E+00  0.000E+00  9.94822E+02  2.947E+00  4.273E+01  2.613E+00 -2.517E-01
   1    8    6     9     1    0.0000E+00  0.0000E+00   0.0000E+00  0.000E+00  0.000E+00  0.000E+00  1.07875E+03  0.000E+00  4.000E+00  0.000E+00  1.000E+00
   1    8    5     9     2    0.0000E+00  0.0000E+00   0.0000E+00  0.000E+00  0.000E+00  0.000E+00  1.07825E+03  0.000E+00  4.000E+00  0.000E+00  1.000E+00





UNSATURATED ZONE PACKAGE VOLUMETRIC BUDGET FOR  TIME STEP    30 STRESS PERIOD   35
  ------------------------------------------------------------------------------



     CUMULATIVE VOLUMES      L**3       RATES FOR THIS TIME STEP      L**3/T
     ------------------                 ------------------------

           IN:                                      IN:
           ---                                      ---
        INFILTRATION =  1279634470.7040          INFILTRATION =           1.5675

          OUT:                                     OUT:
          ----                                     ----
              UZF ET =  1278827551.8394                UZF ET =           1.5675
        UZF RECHARGE =       73224.0000          UZF RECHARGE =       0.0000E+00

            IN - OUT =      733694.8646              IN - OUT =       0.0000E+00

          STORAGE:                                 STORAGE:
          --------                                 --------
      STORAGE CHANGE =      733694.9096        STORAGE CHANGE =      -4.9797E-16

 PERCENT DISCREPANCY IS DIFFERENCE BETWEEN IN-OUT MINUS CHANGE IN STORAGE
 DIVIDED BY THE AVERAGE OF IN AND OUT TIMES 100

 PERCENT DISCREPANCY =           0.00     PERCENT DISCREPANCY =           0.00






1
  VOLUMETRIC BUDGET FOR AGRICULTURAL FIELDS AT  END OF TIME STEP   30, STRESS PERIOD  35
  ------------------------------------------------------------------------------

     CUMULATIVE VOLUMES      L**3       RATES FOR THIS TIME STEP      L**3/T
     ------------------                 ------------------------

           IN:                                      IN:
           ---                                      ---
               AG WELLS  =  1203775104.0000                 AG WELLS  =           0.7200
      DIVERSION SEGMENTS =           0.0000        DIVERSION SEGMENTS =           0.0000
       IRRIGATION PONDS  =           0.0000         IRRIGATION PONDS  =           0.0000
           GW IRRIGATION =           0.0000             GW IRRIGATION =           0.0000
           SW IRRIGATION =           0.0000             SW IRRIGATION =           0.0000
        SYSTEM LOSSES GW =           0.0000          SYSTEM LOSSES GW =           0.0000
        SYSTEM LOSSES SW =           0.0000          SYSTEM LOSSES SW =           0.0000

                TOTAL IN =  1203775104.0000                  TOTAL IN =           0.7200

          OUT:                                     OUT:
          ----                                     ----
               AG WELLS  =           0.0000                 AG WELLS  =           0.0000
      DIVERSION SEGMENTS =           0.0000        DIVERSION SEGMENTS =           0.0000
       IRRIGATION PONDS  =           0.0000         IRRIGATION PONDS  =           0.0000
           GW IRRIGATION =  1203775104.0000             GW IRRIGATION =           0.7200
           SW IRRIGATION =           0.0000             SW IRRIGATION =           0.0000
        SYSTEM LOSSES GW =           0.0000          SYSTEM LOSSES GW =           0.0000
        SYSTEM LOSSES SW =           0.0000          SYSTEM LOSSES SW =           0.0000

               TOTAL OUT =  1203775104.0000                 TOTAL OUT =           0.7200

                IN - OUT =           0.0000                  IN - OUT =           0.0000

     PERCENT DISCREPANCY =           0.00         PERCENT DISCREPANCY =           0.00



1
  VOLUMETRIC BUDGET FOR ENTIRE MODEL AT END OF TIME STEP   30, STRESS PERIOD  35
  ------------------------------------------------------------------------------

     CUMULATIVE VOLUMES      L**3       RATES FOR THIS TIME STEP      L**3/T
     ------------------                 ------------------------

           IN:                                      IN:
           ---                                      ---
             STORAGE     =  1553859968.0000               STORAGE     =          12.2609
       CONSTANT HEAD     =           0.0000         CONSTANT HEAD     =           0.0000
     HEAD DEP BOUNDS     =    25815878.0000       HEAD DEP BOUNDS     =           0.2898
      STREAM LEAKAGE     =  1078180224.0000        STREAM LEAKAGE     =          12.2305
        UZF RECHARGE     =       73223.9531          UZF RECHARGE     =           0.0000
               GW ET     =           0.0000                 GW ET     =           0.0000
     SURFACE LEAKAGE     =           0.0000       SURFACE LEAKAGE     =           0.0000
           AG WELLS      =           0.0000             AG WELLS      =           0.0000

                TOTAL IN =  2657929216.0000                  TOTAL IN =          24.7813

          OUT:                                     OUT:
          ----                                     ----
             STORAGE     =   548752896.0000               STORAGE     =          14.4726
       CONSTANT HEAD     =           0.0000         CONSTANT HEAD     =           0.0000
     HEAD DEP BOUNDS     =    25859726.0000       HEAD DEP BOUNDS     =           0.2879
      STREAM LEAKAGE     =   879547136.0000        STREAM LEAKAGE     =           9.3007
        UZF RECHARGE     =           0.0000          UZF RECHARGE     =           0.0000
               GW ET     =           0.0000                 GW ET     =           0.0000
     SURFACE LEAKAGE     =           0.0000       SURFACE LEAKAGE     =           0.0000
           AG WELLS      =  1203775104.0000             AG WELLS      =           0.7200

               TOTAL OUT =  2657934848.0000                 TOTAL OUT =          24.7812

                IN - OUT =       -5632.0000                  IN - OUT =       1.1444E-05

     PERCENT DISCREPANCY =          -0.00         PERCENT DISCREPANCY =           0.00






         TIME SUMMARY AT END OF TIME STEP   30 IN STRESS PERIOD   35
                    SECONDS     MINUTES      HOURS       DAYS        YEARS
                    -----------------------------------------------------------
   TIME STEP LENGTH  87667.      1461.1      24.352      1.0147     2.77799E-03
 STRESS PERIOD TIME 2.63000E+06  43833.      730.56      30.440     8.33397E-02
         TOTAL TIME 8.95061E+07 1.49177E+06  24863.      1036.0      2.8363    
1
1
                            STRESS PERIOD NO.   36, LENGTH =   2630000.    
                            -----------------------------------------------

                              NUMBER OF TIME STEPS =    30

                               MULTIPLIER FOR DELT =     1.000

                            INITIAL TIME STEP SIZE =   87666.66    

 REUSING NON-PARAMETER GHB CELLS FROM LAST STRESS PERIOD

      2 GHB CELLS

 REUSING STREAM SEGMENT DATA FROM LAST STRESS PERIOD



            AREAL INFILTRATION RATE
 READING ON UNIT   19 WITH FORMAT: (FREE)              

            1           2           3           4           5           6           7           8           9          10
 ........................................................................................................................
   1   1.0000E-10  2.0000E-10   0.000       0.000       0.000       0.000       0.000       0.000       0.000       0.000    
   2   2.0000E-10  1.0000E-10  2.0000E-10   0.000       0.000      8.0000E-10  8.0000E-10  5.0000E-10   0.000       0.000    
   3    0.000      5.0000E-10  1.0000E-10  1.0000E-10  8.0000E-10  8.0000E-10  5.0000E-10  5.0000E-10   0.000       0.000    
   4   8.0000E-10  5.0000E-10  1.0000E-10  1.0000E-10  1.0000E-10  1.0000E-10  1.0000E-10  1.0000E-10  2.0000E-10   0.000    
   5   8.0000E-10  5.0000E-10  1.0000E-10  1.0000E-10  1.0000E-10  1.0000E-10  1.0000E-10  1.0000E-10  1.0000E-10  1.0000E-10
   6   8.0000E-10  5.0000E-10  5.0000E-10  2.0000E-10  2.0000E-10  1.0000E-10  1.0000E-10  1.0000E-10  1.0000E-10  5.0000E-10
   7   8.0000E-10  5.0000E-10  5.0000E-10  2.0000E-10  2.0000E-10  1.0000E-10  1.0000E-10  2.0000E-10  2.0000E-10   0.000    
   8    0.000      5.0000E-10  5.0000E-10  2.0000E-10  2.0000E-10  1.0000E-10  1.0000E-10  2.0000E-10  5.0000E-10   0.000    
   9    0.000      5.0000E-10  5.0000E-10  2.0000E-10  2.0000E-10  1.0000E-10  1.0000E-10  2.0000E-10  5.0000E-10   0.000    
  10    0.000      5.0000E-10  5.0000E-10  2.0000E-10  2.0000E-10  1.0000E-10  1.0000E-10  2.0000E-10  5.0000E-10  8.0000E-10
  11    0.000      1.0000E-10  1.0000E-10  1.0000E-10  1.0000E-10  1.0000E-10  1.0000E-10  2.0000E-10  5.0000E-10   0.000    
  12   1.0000E-10  1.0000E-10  1.0000E-10  1.0000E-10  1.0000E-10  1.0000E-10  1.0000E-10  1.0000E-10  2.0000E-10   0.000    
  13   1.0000E-10  1.0000E-10  2.0000E-10  2.0000E-10  2.0000E-10  2.0000E-10  2.0000E-10  1.0000E-10  1.0000E-10   0.000    
  14    0.000      2.0000E-10  5.0000E-10  5.0000E-10  5.0000E-10  5.0000E-10  5.0000E-10  2.0000E-10  1.0000E-10   0.000    
  15    0.000       0.000      8.0000E-10  8.0000E-10  8.0000E-10  8.0000E-10   0.000       0.000       0.000       0.000    

                  ET RATE =  5.000000E-10

 USING ET EXTINCTION DEPTH FROM PREVIOUS STRESS PERIOD. CURRENT PERIOD IS:      36

 USING EXTINCTION WATER CONTENT FROM PREVIOUS STRESS PERIOD. CURRENT PERIOD IS:      36

 USING AIR ENTRY PRESSURE FROM PREVIOUS STRESS PERIOD. CURRENT PERIOD IS:      36

 USING ROOT PRESSURE HEAD FROM PREVIOUS STRESS PERIOD. CURRENT PERIOD IS:      36

 USING ROOT ACTIVITY FROM PREVIOUS STRESS PERIOD. CURRENT PERIOD IS:      36

 PROCESSING AG STRESS PERIOD DATA

 READING AG STRESS PERIOD DATA

 READING IRRIGATION SEGMENT

 READING IRRIGATION WELL

 READING SUPPLEMENTAL WELL

 NO IRRPOND OR REUSING IRRPOND DATA FROM LAST STRESS PERIOD

 END PROCESSING AG STRESS PERIOD DATA OPTIONS
 
 SOLVING FOR HEAD 
                                                   Max.-Head-Change                         Max.-Flux-Residual
  Residual-Control   Outer-Iter.   Inner-Iter.     Column Row Layer    Maximum-Head-Change  Column Row Layer    Maximum-Flux-Residual          L2-NORM 
          0                 1           2             4    7     1       0.5268654655E-01       4    7    1         0.2773727153E+01      0.5650665866E+01
          0                 2           2             4    7     1      -0.5125016937E-02       4    7    1        -0.2773762826E+00      0.5650673530E+00
          0                 3           2             4    7     1       0.3489941392E-03       4    7    1         0.1941631441E-01      0.3955457396E-01
          0                 4           1             4    7     1      -0.1388680582E-04       4    7    1        -0.7941285323E-03      0.1617775704E-02

    ------------------------------------------------
       NWT REQUIRED            4 OUTER ITERATIONS 
       AND A TOTAL OF          7 INNER ITERATIONS.
    ------------------------------------------------

 NO OUTPUT CONTROL FOR STRESS PERIOD   36   TIME STEP    1
 
 SOLVING FOR HEAD 
                                                   Max.-Head-Change                         Max.-Flux-Residual
  Residual-Control   Outer-Iter.   Inner-Iter.     Column Row Layer    Maximum-Head-Change  Column Row Layer    Maximum-Flux-Residual          L2-NORM 
          0                 1           2             4    7     1       0.5199618090E-01       4    7    1         0.2737435342E+01      0.5582967294E+01
          0                 2           2             4    7     1      -0.5057862170E-02       4    7    1        -0.2737470327E+00      0.5582845160E+00
          0                 3           2             4    7     1       0.3444211581E-03       4    7    1         0.1916226746E-01      0.3907859031E-01
          0                 4           1             4    7     1      -0.1370484239E-04       4    7    1        -0.7837379712E-03      0.1598242897E-02

    ------------------------------------------------
       NWT REQUIRED            4 OUTER ITERATIONS 
       AND A TOTAL OF          7 INNER ITERATIONS.
    ------------------------------------------------

 NO OUTPUT CONTROL FOR STRESS PERIOD   36   TIME STEP    2
 
 SOLVING FOR HEAD 
                                                   Max.-Head-Change                         Max.-Flux-Residual
  Residual-Control   Outer-Iter.   Inner-Iter.     Column Row Layer    Maximum-Head-Change  Column Row Layer    Maximum-Flux-Residual          L2-NORM 
          0                 1           2             4    7     1       0.5131401066E-01       4    7    1         0.2701561499E+01      0.5509887320E+01
          0                 2           2             4    7     1      -0.4991504593E-02       4    7    1        -0.2701595795E+00      0.5509765303E+00
          0                 3           2             4    7     1       0.3399024635E-03       4    7    1         0.1891114630E-01      0.3856703904E-01
          0                 4           1             4    7     1      -0.1352503956E-04       4    7    1        -0.7734671130E-03      0.1577315824E-02

    ------------------------------------------------
       NWT REQUIRED            4 OUTER ITERATIONS 
       AND A TOTAL OF          7 INNER ITERATIONS.
    ------------------------------------------------

 NO OUTPUT CONTROL FOR STRESS PERIOD   36   TIME STEP    3
 
 SOLVING FOR HEAD 
                                                   Max.-Head-Change                         Max.-Flux-Residual
  Residual-Control   Outer-Iter.   Inner-Iter.     Column Row Layer    Maximum-Head-Change  Column Row Layer    Maximum-Flux-Residual          L2-NORM 
          0                 1           2             4    7     1       0.5064041359E-01       4    7    1         0.2666127024E+01      0.5437751993E+01
          0                 2           2             4    7     1      -0.4925980954E-02       4    7    1        -0.2666160631E+00      0.5437644811E+00
          0                 3           2             4    7     1       0.3354405562E-03       4    7    1         0.1866310069E-01      0.3806236574E-01
          0                 4           1             4    7     1      -0.1334749588E-04       4    7    1        -0.7633220237E-03      0.1556664939E-02

    ------------------------------------------------
       NWT REQUIRED            4 OUTER ITERATIONS 
       AND A TOTAL OF          7 INNER ITERATIONS.
    ------------------------------------------------

 NO OUTPUT CONTROL FOR STRESS PERIOD   36   TIME STEP    4
 
 SOLVING FOR HEAD 
                                                   Max.-Head-Change                         Max.-Flux-Residual
  Residual-Control   Outer-Iter.   Inner-Iter.     Column Row Layer    Maximum-Head-Change  Column Row Layer    Maximum-Flux-Residual          L2-NORM 
          0                 1           2             4    7     1       0.4997520311E-01       4    7    1         0.2631122570E+01      0.5367290194E+01
          0                 2           2             4    7     1      -0.4861273101E-02       4    7    1        -0.2631155490E+00      0.5367195088E+00
          0                 3           2             4    7     1       0.3310342011E-03       4    7    1         0.1841806522E-01      0.3756932183E-01
          0                 4           1             4    7     1      -0.1317216322E-04       4    7    1        -0.7533000730E-03      0.1536527686E-02

    ------------------------------------------------
       NWT REQUIRED            4 OUTER ITERATIONS 
       AND A TOTAL OF          7 INNER ITERATIONS.
    ------------------------------------------------

 NO OUTPUT CONTROL FOR STRESS PERIOD   36   TIME STEP    5
 
 SOLVING FOR HEAD 
                                                   Max.-Head-Change                         Max.-Flux-Residual
  Residual-Control   Outer-Iter.   Inner-Iter.     Column Row Layer    Maximum-Head-Change  Column Row Layer    Maximum-Flux-Residual          L2-NORM 
          0                 1           2             4    7     1       0.4931858432E-01       4    7    1         0.2596560164E+01      0.5298431131E+01
          0                 2           2             4    7     1      -0.4804657927E-02       4    7    1        -0.2601628500E+00      0.5298852715E+00
          0                 3           2             4    7     1       0.3271788957E-03       4    7    1         0.1821137468E-01      0.3709100948E-01
          0                 4           1             4    7     1      -0.1301875684E-04       4    7    1        -0.7448464173E-03      0.1516966740E-02

    ------------------------------------------------
       NWT REQUIRED            4 OUTER ITERATIONS 
       AND A TOTAL OF          7 INNER ITERATIONS.
    ------------------------------------------------

 NO OUTPUT CONTROL FOR STRESS PERIOD   36   TIME STEP    6
 
 SOLVING FOR HEAD 
                                                   Max.-Head-Change                         Max.-Flux-Residual
  Residual-Control   Outer-Iter.   Inner-Iter.     Column Row Layer    Maximum-Head-Change  Column Row Layer    Maximum-Flux-Residual          L2-NORM 
          0                 1           2             4    7     1       0.4864741168E-01       4    7    1         0.2562063630E+01      0.5231097691E+01
          0                 2           2             4    7     1      -0.4732115841E-02       4    7    1        -0.2562097065E+00      0.5231023173E+00
          0                 3           2             4    7     1       0.3222390642E-03       4    7    1         0.1793465555E-01      0.3661630062E-01
          0                 4           1             4    7     1      -0.1282219661E-04       4    7    1        -0.7335285902E-03      0.1497555546E-02

    ------------------------------------------------
       NWT REQUIRED            4 OUTER ITERATIONS 
       AND A TOTAL OF          7 INNER ITERATIONS.
    ------------------------------------------------

 NO OUTPUT CONTROL FOR STRESS PERIOD   36   TIME STEP    7
 
 SOLVING FOR HEAD 
                                                   Max.-Head-Change                         Max.-Flux-Residual
  Residual-Control   Outer-Iter.   Inner-Iter.     Column Row Layer    Maximum-Head-Change  Column Row Layer    Maximum-Flux-Residual          L2-NORM 
          0                 1           2             4    7     1       0.4799338342E-01       4    7    1         0.2527571482E+01      0.5165209236E+01
          0                 2           2             4    7     1      -0.4668543048E-02       4    7    1        -0.2527604144E+00      0.5165338015E+00
          0                 3           2             4    7     1       0.3179100036E-03       4    7    1         0.1769320575E-01      0.3615656386E-01
          0                 4           1             4    7     1      -0.1264993878E-04       4    7    1        -0.7236532642E-03      0.1478726738E-02

    ------------------------------------------------
       NWT REQUIRED            4 OUTER ITERATIONS 
       AND A TOTAL OF          7 INNER ITERATIONS.
    ------------------------------------------------

 NO OUTPUT CONTROL FOR STRESS PERIOD   36   TIME STEP    8
 
 SOLVING FOR HEAD 
                                                   Max.-Head-Change                         Max.-Flux-Residual
  Residual-Control   Outer-Iter.   Inner-Iter.     Column Row Layer    Maximum-Head-Change  Column Row Layer    Maximum-Flux-Residual          L2-NORM 
          0                 1           2             4    7     1       0.4734908438E-01       4    7    1         0.2493593512E+01      0.5100753228E+01
          0                 2           2             4    7     1      -0.4605821789E-02       4    7    1        -0.2493625416E+00      0.5100694646E+00
          0                 3           2             4    7     1       0.3136389294E-03       4    7    1         0.1745535528E-01      0.3570416750E-01
          0                 4           1             4    7     1      -0.1247998914E-04       4    7    1        -0.7139251752E-03      0.1460265147E-02

    ------------------------------------------------
       NWT REQUIRED            4 OUTER ITERATIONS 
       AND A TOTAL OF          7 INNER ITERATIONS.
    ------------------------------------------------

 NO OUTPUT CONTROL FOR STRESS PERIOD   36   TIME STEP    9
 
 SOLVING FOR HEAD 
                                                   Max.-Head-Change                         Max.-Flux-Residual
  Residual-Control   Outer-Iter.   Inner-Iter.     Column Row Layer    Maximum-Head-Change  Column Row Layer    Maximum-Flux-Residual          L2-NORM 
          0                 1           2             4    7     1       0.4671447579E-01       4    7    1         0.2460117791E+01      0.5037691333E+01
          0                 2           2             4    7     1      -0.4544090579E-02       4    7    1        -0.2460148948E+00      0.5037639002E+00
          0                 3           2             4    7     1       0.3094352731E-03       4    7    1         0.1722102059E-01      0.3526282577E-01
          0                 4           1             4    7     1      -0.1231272094E-04       4    7    1        -0.7043408475E-03      0.1442222043E-02

    ------------------------------------------------
       NWT REQUIRED            4 OUTER ITERATIONS 
       AND A TOTAL OF          7 INNER ITERATIONS.
    ------------------------------------------------

 NO OUTPUT CONTROL FOR STRESS PERIOD   36   TIME STEP   10
 
 SOLVING FOR HEAD 
                                                   Max.-Head-Change                         Max.-Flux-Residual
  Residual-Control   Outer-Iter.   Inner-Iter.     Column Row Layer    Maximum-Head-Change  Column Row Layer    Maximum-Flux-Residual          L2-NORM 
          0                 1           2             4    7     1       0.4608958191E-01       4    7    1         0.2427149203E+01      0.4975977120E+01
          0                 2           2             4    7     1      -0.4483304365E-02       4    7    1        -0.2427179624E+00      0.4975930356E+00
          0                 3           2             4    7     1       0.3052959681E-03       4    7    1         0.1699023592E-01      0.3483091079E-01
          0                 4           1             4    7     1      -0.1214801433E-04       4    7    1        -0.6949017559E-03      0.1424531572E-02

    ------------------------------------------------
       NWT REQUIRED            4 OUTER ITERATIONS 
       AND A TOTAL OF          7 INNER ITERATIONS.
    ------------------------------------------------

 NO OUTPUT CONTROL FOR STRESS PERIOD   36   TIME STEP   11
 
 SOLVING FOR HEAD 
                                                   Max.-Head-Change                         Max.-Flux-Residual
  Residual-Control   Outer-Iter.   Inner-Iter.     Column Row Layer    Maximum-Head-Change  Column Row Layer    Maximum-Flux-Residual          L2-NORM 
          0                 1           2             4    7     1       0.4547433516E-01       4    7    1         0.2394684295E+01      0.4915581563E+01
          0                 2           2             4    7     1      -0.4423456570E-02       4    7    1        -0.2394713993E+00      0.4915539651E+00
          0                 3           2             4    7     1       0.3012205656E-03       4    7    1         0.1676297709E-01      0.3440824180E-01
          0                 4           1             4    7     1      -0.1198585032E-04       4    7    1        -0.6856068480E-03      0.1407287733E-02

    ------------------------------------------------
       NWT REQUIRED            4 OUTER ITERATIONS 
       AND A TOTAL OF          7 INNER ITERATIONS.
    ------------------------------------------------

 NO OUTPUT CONTROL FOR STRESS PERIOD   36   TIME STEP   12
 
 SOLVING FOR HEAD 
                                                   Max.-Head-Change                         Max.-Flux-Residual
  Residual-Control   Outer-Iter.   Inner-Iter.     Column Row Layer    Maximum-Head-Change  Column Row Layer    Maximum-Flux-Residual          L2-NORM 
          0                 1           2             4    7     1       0.4486852222E-01       4    7    1         0.2362712321E+01      0.4856446911E+01
          0                 2           2             4    7     1      -0.4364526447E-02       4    7    1        -0.2362741309E+00      0.4856408915E+00
          0                 3           2             4    7     1       0.2972076528E-03       4    7    1         0.1653916888E-01      0.3399432158E-01
          0                 4           1             4    7     1      -0.1182617248E-04       4    7    1        -0.6764530697E-03      0.1390351296E-02

    ------------------------------------------------
       NWT REQUIRED            4 OUTER ITERATIONS 
       AND A TOTAL OF          7 INNER ITERATIONS.
    ------------------------------------------------

 NO OUTPUT CONTROL FOR STRESS PERIOD   36   TIME STEP   13
 
 SOLVING FOR HEAD 
                                                   Max.-Head-Change                         Max.-Flux-Residual
  Residual-Control   Outer-Iter.   Inner-Iter.     Column Row Layer    Maximum-Head-Change  Column Row Layer    Maximum-Flux-Residual          L2-NORM 
          0                 1           2             4    7     1       0.4427219891E-01       4    7    1         0.2331236705E+01      0.4798552776E+01
          0                 2           2             4    7     1      -0.4306519425E-02       4    7    1        -0.2331264995E+00      0.4798519344E+00
          0                 3           2             4    7     1       0.2932575998E-03       4    7    1         0.1631883524E-01      0.3358917311E-01
          0                 4           1             4    7     1      -0.1166899636E-04       4    7    1        -0.6674414242E-03      0.1373786403E-02

    ------------------------------------------------
       NWT REQUIRED            4 OUTER ITERATIONS 
       AND A TOTAL OF          7 INNER ITERATIONS.
    ------------------------------------------------

 NO OUTPUT CONTROL FOR STRESS PERIOD   36   TIME STEP   14
 
 SOLVING FOR HEAD 
                                                   Max.-Head-Change                         Max.-Flux-Residual
  Residual-Control   Outer-Iter.   Inner-Iter.     Column Row Layer    Maximum-Head-Change  Column Row Layer    Maximum-Flux-Residual          L2-NORM 
          0                 1           2             4    7     1       0.4368540385E-01       4    7    1         0.2300260341E+01      0.4741848700E+01
          0                 2           2             4    7     1      -0.4249439262E-02       4    7    1        -0.2300287947E+00      0.4741818619E+00
          0                 3           2             4    7     1       0.2893706621E-03       4    7    1         0.1610199646E-01      0.3319232071E-01
          0                 4           1             4    7     1      -0.1151433153E-04       4    7    1        -0.6585726937E-03      0.1357544818E-02

    ------------------------------------------------
       NWT REQUIRED            4 OUTER ITERATIONS 
       AND A TOTAL OF          7 INNER ITERATIONS.
    ------------------------------------------------

 NO OUTPUT CONTROL FOR STRESS PERIOD   36   TIME STEP   15
 
 SOLVING FOR HEAD 
                                                   Max.-Head-Change                         Max.-Flux-Residual
  Residual-Control   Outer-Iter.   Inner-Iter.     Column Row Layer    Maximum-Head-Change  Column Row Layer    Maximum-Flux-Residual          L2-NORM 
          0                 1           2             4    7     1       0.4310776789E-01       4    7    1         0.2269763507E+01      0.4686295552E+01
          0                 2           2             4    7     1      -0.4193250048E-02       4    7    1        -0.2269790441E+00      0.4686268346E+00
          0                 3           2             4    7     1       0.2855443946E-03       4    7    1         0.1588851447E-01      0.3280349889E-01
          0                 4           1             4    7     1      -0.1136208034E-04       4    7    1        -0.6498412642E-03      0.1341652873E-02

    ------------------------------------------------
       NWT REQUIRED            4 OUTER ITERATIONS 
       AND A TOTAL OF          7 INNER ITERATIONS.
    ------------------------------------------------

 NO OUTPUT CONTROL FOR STRESS PERIOD   36   TIME STEP   16
 
 SOLVING FOR HEAD 
                                                   Max.-Head-Change                         Max.-Flux-Residual
  Residual-Control   Outer-Iter.   Inner-Iter.     Column Row Layer    Maximum-Head-Change  Column Row Layer    Maximum-Flux-Residual          L2-NORM 
          0                 1           2             4    7     1       0.4253946336E-01       4    7    1         0.2239756031E+01      0.4631870664E+01
          0                 2           2             4    7     1      -0.4137968548E-02       4    7    1        -0.2239782308E+00      0.4631846087E+00
          0                 3           2             4    7     1       0.2817799386E-03       4    7    1         0.1567845806E-01      0.3242256518E-01
          0                 4           1             4    7     1      -0.1121228897E-04       4    7    1        -0.6412499290E-03      0.1326071810E-02

    ------------------------------------------------
       NWT REQUIRED            4 OUTER ITERATIONS 
       AND A TOTAL OF          7 INNER ITERATIONS.
    ------------------------------------------------

 NO OUTPUT CONTROL FOR STRESS PERIOD   36   TIME STEP   17
 
 SOLVING FOR HEAD 
                                                   Max.-Head-Change                         Max.-Flux-Residual
  Residual-Control   Outer-Iter.   Inner-Iter.     Column Row Layer    Maximum-Head-Change  Column Row Layer    Maximum-Flux-Residual          L2-NORM 
          0                 1           2             4    7     1       0.4198037391E-01       4    7    1         0.2210232366E+01      0.4578531390E+01
          0                 2           2             4    7     1      -0.4083583444E-02       4    7    1        -0.2210258000E+00      0.4578509251E+00
          0                 3           2             4    7     1       0.2780765241E-03       4    7    1         0.1547178843E-01      0.3204921789E-01
          0                 4           1             4    7     1      -0.1106492703E-04       4    7    1        -0.6327971419E-03      0.1310792097E-02

    ------------------------------------------------
       NWT REQUIRED            4 OUTER ITERATIONS 
       AND A TOTAL OF          7 INNER ITERATIONS.
    ------------------------------------------------

 NO OUTPUT CONTROL FOR STRESS PERIOD   36   TIME STEP   18
 
 SOLVING FOR HEAD 
                                                   Max.-Head-Change                         Max.-Flux-Residual
  Residual-Control   Outer-Iter.   Inner-Iter.     Column Row Layer    Maximum-Head-Change  Column Row Layer    Maximum-Flux-Residual          L2-NORM 
          0                 1           2             4    7     1       0.4143024952E-01       4    7    1         0.2181179234E+01      0.4526248674E+01
          0                 2           2             4    7     1      -0.4030070416E-02       4    7    1        -0.2181204238E+00      0.4526228466E+00
          0                 3           2             4    7     1       0.2744324944E-03       4    7    1         0.1526841260E-01      0.3168326426E-01
          0                 4           1             4    7     1      -0.1091992761E-04       4    7    1        -0.6244790679E-03      0.1295821314E-02

    ------------------------------------------------
       NWT REQUIRED            4 OUTER ITERATIONS 
       AND A TOTAL OF          7 INNER ITERATIONS.
    ------------------------------------------------

 NO OUTPUT CONTROL FOR STRESS PERIOD   36   TIME STEP   19
 
 SOLVING FOR HEAD 
                                                   Max.-Head-Change                         Max.-Flux-Residual
  Residual-Control   Outer-Iter.   Inner-Iter.     Column Row Layer    Maximum-Head-Change  Column Row Layer    Maximum-Flux-Residual          L2-NORM 
          0                 1           2             4    7     1       0.4088911203E-01       4    7    1         0.2152598162E+01      0.4474995121E+01
          0                 2           2             4    7     1      -0.3977431588E-02       4    7    1        -0.2152622550E+00      0.4474976863E+00
          0                 3           2             4    7     1       0.2708479939E-03       4    7    1         0.1506834128E-01      0.3132454752E-01
          0                 4           1             4    7     1      -0.1077729683E-04       4    7    1        -0.6162961104E-03      0.1281156636E-02

    ------------------------------------------------
       NWT REQUIRED            4 OUTER ITERATIONS 
       AND A TOTAL OF          7 INNER ITERATIONS.
    ------------------------------------------------

 NO OUTPUT CONTROL FOR STRESS PERIOD   36   TIME STEP   20
 
 SOLVING FOR HEAD 
                                                   Max.-Head-Change                         Max.-Flux-Residual
  Residual-Control   Outer-Iter.   Inner-Iter.     Column Row Layer    Maximum-Head-Change  Column Row Layer    Maximum-Flux-Residual          L2-NORM 
          0                 1           2             4    7     1       0.4035683789E-01       4    7    1         0.2124483037E+01      0.4424741859E+01
          0                 2           2             4    7     1      -0.3925654943E-02       4    7    1        -0.2124506822E+00      0.4424725226E+00
          0                 3           2             4    7     1       0.2673222053E-03       4    7    1         0.1487153167E-01      0.3097279961E-01
          0                 4           1             4    7     1      -0.1063700269E-04       4    7    1        -0.6082466050E-03      0.1266781223E-02

    ------------------------------------------------
       NWT REQUIRED            4 OUTER ITERATIONS 
       AND A TOTAL OF          7 INNER ITERATIONS.
    ------------------------------------------------

 NO OUTPUT CONTROL FOR STRESS PERIOD   36   TIME STEP   21
 
 SOLVING FOR HEAD 
                                                   Max.-Head-Change                         Max.-Flux-Residual
  Residual-Control   Outer-Iter.   Inner-Iter.     Column Row Layer    Maximum-Head-Change  Column Row Layer    Maximum-Flux-Residual          L2-NORM 
          0                 1           2             4    7     1       0.3983330316E-01       4    7    1         0.2096827455E+01      0.4375458491E+01
          0                 2           2             4    7     1      -0.3874728424E-02       4    7    1        -0.2096850651E+00      0.4375443143E+00
          0                 3           2             4    7     1       0.2638543067E-03       4    7    1         0.1467793896E-01      0.3062783740E-01
          0                 4           1             4    7     1      -0.1049901155E-04       4    7    1        -0.6003286389E-03      0.1252667564E-02

    ------------------------------------------------
       NWT REQUIRED            4 OUTER ITERATIONS 
       AND A TOTAL OF          7 INNER ITERATIONS.
    ------------------------------------------------

 NO OUTPUT CONTROL FOR STRESS PERIOD   36   TIME STEP   22
 
 SOLVING FOR HEAD 
                                                   Max.-Head-Change                         Max.-Flux-Residual
  Residual-Control   Outer-Iter.   Inner-Iter.     Column Row Layer    Maximum-Head-Change  Column Row Layer    Maximum-Flux-Residual          L2-NORM 
          0                 1           2             4    7     1       0.3931851189E-01       4    7    1         0.2069632236E+01      0.4327120459E+01
          0                 2           2             4    7     1      -0.3824652425E-02       4    7    1        -0.2069654857E+00      0.4327106227E+00
          0                 3           2             4    7     1       0.2604443249E-03       4    7    1         0.1448756886E-01      0.3028946780E-01
          0                 4           1             4    7     1      -0.1036332481E-04       4    7    1        -0.5925424846E-03      0.1238818193E-02

    ------------------------------------------------
       NWT REQUIRED            4 OUTER ITERATIONS 
       AND A TOTAL OF          7 INNER ITERATIONS.
    ------------------------------------------------

 NO OUTPUT CONTROL FOR STRESS PERIOD   36   TIME STEP   23
 
 SOLVING FOR HEAD 
                                                   Max.-Head-Change                         Max.-Flux-Residual
  Residual-Control   Outer-Iter.   Inner-Iter.     Column Row Layer    Maximum-Head-Change  Column Row Layer    Maximum-Flux-Residual          L2-NORM 
          0                 1           2             4    7     1       0.3881206205E-01       4    7    1         0.2042875848E+01      0.4279690558E+01
          0                 2           2             4    7     1      -0.3775387840E-02       4    7    1        -0.2042897906E+00      0.4279677465E+00
          0                 3           2             4    7     1       0.2570895976E-03       4    7    1         0.1430027065E-01      0.2995750597E-01
          0                 4           1             4    7     1      -0.1022983735E-04       4    7    1        -0.5848819881E-03      0.1225256133E-02

    ------------------------------------------------
       NWT REQUIRED            4 OUTER ITERATIONS 
       AND A TOTAL OF          7 INNER ITERATIONS.
    ------------------------------------------------

 NO OUTPUT CONTROL FOR STRESS PERIOD   36   TIME STEP   24
 
 SOLVING FOR HEAD 
                                                   Max.-Head-Change                         Max.-Flux-Residual
  Residual-Control   Outer-Iter.   Inner-Iter.     Column Row Layer    Maximum-Head-Change  Column Row Layer    Maximum-Flux-Residual          L2-NORM 
          0                 1           2             4    7     1       0.3831423281E-01       4    7    1         0.2016573688E+01      0.4233170381E+01
          0                 2           2             4    7     1      -0.3726961823E-02       4    7    1        -0.2016595198E+00      0.4233158237E+00
          0                 3           2             4    7     1       0.2537919728E-03       4    7    1         0.1411615212E-01      0.2963188382E-01
          0                 4           1             4    7     1      -0.1009862159E-04       4    7    1        -0.5773515145E-03      0.1211940967E-02

    ------------------------------------------------
       NWT REQUIRED            4 OUTER ITERATIONS 
       AND A TOTAL OF          7 INNER ITERATIONS.
    ------------------------------------------------

 NO OUTPUT CONTROL FOR STRESS PERIOD   36   TIME STEP   25
 
 SOLVING FOR HEAD 
                                                   Max.-Head-Change                         Max.-Flux-Residual
  Residual-Control   Outer-Iter.   Inner-Iter.     Column Row Layer    Maximum-Head-Change  Column Row Layer    Maximum-Flux-Residual          L2-NORM 
          0                 1           2             4    7     1       0.3782448109E-01       4    7    1         0.1990696737E+01      0.4187506008E+01
          0                 2           2             4    7     1      -0.3679321548E-02       4    7    1        -0.1990717712E+00      0.4187494841E+00
          0                 3           2             4    7     1       0.2505478547E-03       4    7    1         0.1393501017E-01      0.2931225104E-01
          0                 4           1             4    7     1      -0.9969535341E-05       4    7    1        -0.5699428057E-03      0.1198873468E-02

    ------------------------------------------------
       NWT REQUIRED            4 OUTER ITERATIONS 
       AND A TOTAL OF          7 INNER ITERATIONS.
    ------------------------------------------------

 NO OUTPUT CONTROL FOR STRESS PERIOD   36   TIME STEP   26
 
 SOLVING FOR HEAD 
                                                   Max.-Head-Change                         Max.-Flux-Residual
  Residual-Control   Outer-Iter.   Inner-Iter.     Column Row Layer    Maximum-Head-Change  Column Row Layer    Maximum-Flux-Residual          L2-NORM 
          0                 1           2             4    7     1       0.3734307853E-01       4    7    1         0.1965260335E+01      0.4142693669E+01
          0                 2           2             4    7     1      -0.3632493438E-02       4    7    1        -0.1965280787E+00      0.4142683266E+00
          0                 3           2             4    7     1       0.2473590415E-03       4    7    1         0.1375695211E-01      0.2899857733E-01
          0                 4           1             4    7     1      -0.9842649068E-05       4    7    1        -0.5626602081E-03      0.1186032175E-02

    ------------------------------------------------
       NWT REQUIRED            4 OUTER ITERATIONS 
       AND A TOTAL OF          7 INNER ITERATIONS.
    ------------------------------------------------

 NO OUTPUT CONTROL FOR STRESS PERIOD   36   TIME STEP   27
 
 SOLVING FOR HEAD 
                                                   Max.-Head-Change                         Max.-Flux-Residual
  Residual-Control   Outer-Iter.   Inner-Iter.     Column Row Layer    Maximum-Head-Change  Column Row Layer    Maximum-Flux-Residual          L2-NORM 
          0                 1           2             4    7     1       0.3686961956E-01       4    7    1         0.1940242317E+01      0.4098709137E+01
          0                 2           2             4    7     1      -0.3586438041E-02       4    7    1        -0.1940262260E+00      0.4098699211E+00
          0                 3           2             4    7     1       0.2442228471E-03       4    7    1         0.1358182282E-01      0.2869068558E-01
          0                 4           1             4    7     1      -0.9717857197E-05       4    7    1        -0.5554974236E-03      0.1173432400E-02

    ------------------------------------------------
       NWT REQUIRED            4 OUTER ITERATIONS 
       AND A TOTAL OF          7 INNER ITERATIONS.
    ------------------------------------------------

 NO OUTPUT CONTROL FOR STRESS PERIOD   36   TIME STEP   28
 
 SOLVING FOR HEAD 
                                                   Max.-Head-Change                         Max.-Flux-Residual
  Residual-Control   Outer-Iter.   Inner-Iter.     Column Row Layer    Maximum-Head-Change  Column Row Layer    Maximum-Flux-Residual          L2-NORM 
          0                 1           2             4    7     1       0.3640410612E-01       4    7    1         0.1915643405E+01      0.4055526020E+01
          0                 2           2             4    7     1      -0.3541155546E-02       4    7    1        -0.1915662851E+00      0.4055516706E+00
          0                 3           2             4    7     1       0.2411392839E-03       4    7    1         0.1340962735E-01      0.2838842512E-01
          0                 4           1             4    7     1      -0.9595159035E-05       4    7    1        -0.5484546011E-03      0.1161069932E-02

    ------------------------------------------------
       NWT REQUIRED            4 OUTER ITERATIONS 
       AND A TOTAL OF          7 INNER ITERATIONS.
    ------------------------------------------------

 NO OUTPUT CONTROL FOR STRESS PERIOD   36   TIME STEP   29
 
 SOLVING FOR HEAD 
                                                   Max.-Head-Change                         Max.-Flux-Residual
  Residual-Control   Outer-Iter.   Inner-Iter.     Column Row Layer    Maximum-Head-Change  Column Row Layer    Maximum-Flux-Residual          L2-NORM 
          0                 1           2             4    7     1       0.3594639747E-01       4    7    1         0.1891456451E+01      0.4013122876E+01
          0                 2           2             4    7     1      -0.3496632262E-02       4    7    1        -0.1891475412E+00      0.4013114243E+00
          0                 3           2             4    7     1       0.2381074204E-03       4    7    1         0.1324031565E-01      0.2809161782E-01
          0                 4           1             4    7     1      -0.9474518435E-05       4    7    1        -0.5415297530E-03      0.1148943532E-02

    ------------------------------------------------
       NWT REQUIRED            4 OUTER ITERATIONS 
       AND A TOTAL OF          7 INNER ITERATIONS.
    ------------------------------------------------

 NO OUTPUT CONTROL FOR STRESS PERIOD   36   TIME STEP   30



 STREAM LISTING     PERIOD     36   STEP       30

 LAYER ROW COL. STREAM  RCH.  FLOW INTO     FLOW TO   FLOW OUT OF   OVRLND.     DIRECT     STREAM       STREAM     STREAM     STREAM   STREAMBED  STREAMBED
                SEG.NO.  NO.  STRM. RCH.    AQUIFER    STRM. RCH.    RUNOFF     PRECIP       ET          HEAD       DEPTH      WIDTH   CONDCTNC.   GRADIENT

   1    1    1     1     1    9.7497E+00  1.4616E-01   9.6035E+00  0.000E+00  0.000E+00  0.000E+00  1.09394E+03  8.903E-01  8.349E+00  3.757E-02  1.297E+00
   1    2    2     1     2    9.6035E+00  2.2466E-01   9.3789E+00  0.000E+00  0.000E+00  0.000E+00  1.08894E+03  8.846E-01  8.262E+00  5.783E-02  1.295E+00
   1    3    3     1     3    9.3789E+00  1.8995E-01   9.1889E+00  0.000E+00  0.000E+00  0.000E+00  1.08330E+03  8.782E-01  8.163E+00  4.898E-02  1.293E+00
   1    3    4     1     4    9.1889E+00  1.7356E-01   9.0154E+00  0.000E+00  0.000E+00  0.000E+00  1.07828E+03  8.725E-01  8.076E+00  4.482E-02  1.291E+00
   1    4    5     2     1    7.0154E+00  2.7742E-01   6.7380E+00  0.000E+00  0.000E+00  0.000E+00  1.07249E+03  5.566E-01  1.200E+01  7.800E-02  1.186E+00
   1    5    6     2     2    6.7380E+00  2.1268E-01   6.5253E+00  0.000E+00  0.000E+00  0.000E+00  1.06705E+03  5.446E-01  1.200E+01  6.000E-02  1.182E+00
   1    6    6     2     3    6.5253E+00  2.1205E-01   6.3132E+00  0.000E+00  0.000E+00  0.000E+00  1.06233E+03  5.341E-01  1.200E+01  6.000E-02  1.178E+00
   1    7    6     2     4    6.3132E+00  2.1141E-01   6.1018E+00  0.000E+00  0.000E+00  0.000E+00  1.05760E+03  5.235E-01  1.200E+01  6.000E-02  1.174E+00
   1    8    6     2     5    6.1018E+00  2.1076E-01   5.8911E+00  0.000E+00  0.000E+00  0.000E+00  1.05287E+03  5.127E-01  1.200E+01  6.000E-02  1.171E+00
   1    3    5     3     1    2.0000E+00  2.8252E-01   1.7175E+00  0.000E+00  0.000E+00  0.000E+00  1.07555E+03  1.909E+00  9.636E+00  7.227E-02  1.955E+00
   1    3    6     3     2    1.7175E+00  2.4905E-01   1.4684E+00  0.000E+00  0.000E+00  0.000E+00  1.07264E+03  1.727E+00  8.909E+00  6.682E-02  1.864E+00
   1    3    7     3     3    1.4684E+00  1.9718E-01   1.2712E+00  0.000E+00  0.000E+00  0.000E+00  1.06987E+03  1.555E+00  8.218E+00  5.547E-02  1.777E+00
   1    4    8     3     4    1.2712E+00  2.2567E-01   1.0456E+00  0.000E+00  0.000E+00  0.000E+00  1.06682E+03  1.364E+00  7.455E+00  6.709E-02  1.682E+00
   1    5    8     3     5    1.0456E+00  1.5790E-01   8.8768E-01  0.000E+00  0.000E+00  0.000E+00  1.06362E+03  1.164E+00  6.655E+00  4.991E-02  1.582E+00
   1    6    8     3     6    8.8768E-01  5.5980E-02   8.3170E-01  0.000E+00  0.000E+00  0.000E+00  1.06158E+03  1.036E+00  6.145E+00  1.844E-02  1.518E+00
   1    5   10     4     1    1.0000E+01  9.0919E-02   9.9091E+00  0.000E+00  0.000E+00  0.000E+00  1.07836E+03  6.368E-01  1.000E+01  2.500E-02  1.212E+00
   1    5    9     4     2    9.9091E+00  1.8158E-01   9.7275E+00  0.000E+00  0.000E+00  0.000E+00  1.07154E+03  6.315E-01  1.000E+01  5.000E-02  1.211E+00
   1    6    8     4     3    9.7275E+00  1.2689E-01   9.6006E+00  0.000E+00  0.000E+00  0.000E+00  1.06381E+03  6.256E-01  1.000E+01  3.500E-02  1.209E+00
   1    6    8     5     1    1.0432E+01  2.2686E-01   1.0205E+01  0.000E+00  0.000E+00  0.000E+00  1.05868E+03  6.790E-01  1.542E+01  6.166E-02  1.226E+00
   1    7    7     5     2    1.0205E+01  2.7894E-01   9.9265E+00  0.000E+00  0.000E+00  0.000E+00  1.05417E+03  6.732E-01  1.519E+01  7.594E-02  1.224E+00
   1    8    7     5     3    9.9265E+00  1.9221E-01   9.7343E+00  0.000E+00  0.000E+00  0.000E+00  1.04992E+03  6.676E-01  1.497E+01  5.241E-02  1.223E+00
   1    8    6     5     4    9.7343E+00  1.3577E-01   9.5985E+00  0.000E+00  0.000E+00  0.000E+00  1.04691E+03  6.637E-01  1.482E+01  3.706E-02  1.221E+00
   1    9    6     6     1    1.5490E+01  2.3472E-01   1.5255E+01  0.000E+00  0.000E+00  0.000E+00  1.04364E+03  9.120E-01  1.200E+01  6.000E-02  1.304E+00
   1   10    7     6     2    1.5255E+01  2.3422E-01   1.5021E+01  0.000E+00  0.000E+00  0.000E+00  1.03909E+03  9.037E-01  1.200E+01  6.000E-02  1.301E+00
   1   11    7     6     3    1.5021E+01  2.3372E-01   1.4787E+01  0.000E+00  0.000E+00  0.000E+00  1.03453E+03  8.953E-01  1.200E+01  6.000E-02  1.298E+00
   1   12    7     6     4    1.4787E+01  2.3321E-01   1.4554E+01  0.000E+00  0.000E+00  0.000E+00  1.02998E+03  8.868E-01  1.200E+01  6.000E-02  1.296E+00
   1   13    7     6     5    1.4554E+01  7.7856E-03   1.4546E+01  0.000E+00  0.000E+00  0.000E+00  1.02679E+03  8.824E-01  1.200E+01  2.400E-02  1.081E-01
   1   14    9     7     1    1.5000E+02  1.3967E+00   1.4860E+02  0.000E+00  0.000E+00  0.000E+00  1.03987E+03  2.288E+00  5.529E+01  5.593E-01  8.324E-01
   1   13    8     7     2    1.4860E+02  2.0296E+00   1.4657E+02  0.000E+00  0.000E+00  0.000E+00  1.03478E+03  2.278E+00  5.525E+01  6.147E-01  1.101E+00
   1   13    7     7     3    1.4657E+02  1.7981E+00   1.4478E+02  0.000E+00  0.000E+00  0.000E+00  1.02969E+03  2.268E+00  5.521E+01  5.583E-01  1.073E+00
   1   13    6     8     1    1.5932E+02  1.1808E+00   1.5814E+02  0.000E+00  0.000E+00  0.000E+00  1.02475E+03  2.877E+00  4.172E+01  4.251E-01  9.258E-01
   1   13    5     8     2    1.5814E+02  4.2667E-01   1.5771E+02  0.000E+00  0.000E+00  0.000E+00  1.01850E+03  2.872E+00  4.164E+01  4.243E-01  3.352E-01
   1   13    4     8     3    1.5771E+02 -1.5613E+00   1.5928E+02  0.000E+00  0.000E+00  0.000E+00  1.01225E+03  2.876E+00  4.170E+01  4.249E+00 -1.225E-01
   1   13    3     8     4    1.5928E+02 -3.2300E+00   1.6251E+02  0.000E+00  0.000E+00  0.000E+00  1.00602E+03  2.892E+00  4.193E+01  4.273E+00 -2.520E-01
   1   13    2     8     5    1.6251E+02 -2.4858E+00   1.6499E+02  0.000E+00  0.000E+00  0.000E+00  9.99786E+02  2.911E+00  4.221E+01  4.301E+00 -1.926E-01
   1   13    1     8     6    1.6499E+02 -1.9697E+00   1.6696E+02  0.000E+00  0.000E+00  0.000E+00  9.94801E+02  2.926E+00  4.242E+01  2.594E+00 -2.531E-01
   1    8    6     9     1    0.0000E+00  0.0000E+00   0.0000E+00  0.000E+00  0.000E+00  0.000E+00  1.07875E+03  0.000E+00  4.000E+00  0.000E+00  1.000E+00
   1    8    5     9     2    0.0000E+00  0.0000E+00   0.0000E+00  0.000E+00  0.000E+00  0.000E+00  1.07825E+03  0.000E+00  4.000E+00  0.000E+00  1.000E+00





UNSATURATED ZONE PACKAGE VOLUMETRIC BUDGET FOR  TIME STEP    30 STRESS PERIOD   36
  ------------------------------------------------------------------------------



     CUMULATIVE VOLUMES      L**3       RATES FOR THIS TIME STEP      L**3/T
     ------------------                 ------------------------

           IN:                                      IN:
           ---                                      ---
        INFILTRATION =  1281863395.5767          INFILTRATION =           0.8475

          OUT:                                     OUT:
          ----                                     ----
              UZF ET =  1280800051.4738                UZF ET =           0.7500
        UZF RECHARGE =       73224.0000          UZF RECHARGE =       0.0000E+00

            IN - OUT =      990120.1030              IN - OUT =       9.7500E-02

          STORAGE:                                 STORAGE:
          --------                                 --------
      STORAGE CHANGE =      990120.1670        STORAGE CHANGE =       9.7500E-02

 PERCENT DISCREPANCY IS DIFFERENCE BETWEEN IN-OUT MINUS CHANGE IN STORAGE
 DIVIDED BY THE AVERAGE OF IN AND OUT TIMES 100

 PERCENT DISCREPANCY =           0.00     PERCENT DISCREPANCY =           0.00






1
  VOLUMETRIC BUDGET FOR AGRICULTURAL FIELDS AT  END OF TIME STEP   30, STRESS PERIOD  36
  ------------------------------------------------------------------------------

     CUMULATIVE VOLUMES      L**3       RATES FOR THIS TIME STEP      L**3/T
     ------------------                 ------------------------

           IN:                                      IN:
           ---                                      ---
               AG WELLS  =  1203775104.0000                 AG WELLS  =           0.0000
      DIVERSION SEGMENTS =           0.0000        DIVERSION SEGMENTS =           0.0000
       IRRIGATION PONDS  =           0.0000         IRRIGATION PONDS  =           0.0000
           GW IRRIGATION =           0.0000             GW IRRIGATION =           0.0000
           SW IRRIGATION =           0.0000             SW IRRIGATION =           0.0000
        SYSTEM LOSSES GW =           0.0000          SYSTEM LOSSES GW =           0.0000
        SYSTEM LOSSES SW =           0.0000          SYSTEM LOSSES SW =           0.0000

                TOTAL IN =  1203775104.0000                  TOTAL IN =           0.0000

          OUT:                                     OUT:
          ----                                     ----
               AG WELLS  =           0.0000                 AG WELLS  =           0.0000
      DIVERSION SEGMENTS =           0.0000        DIVERSION SEGMENTS =           0.0000
       IRRIGATION PONDS  =           0.0000         IRRIGATION PONDS  =           0.0000
           GW IRRIGATION =  1203775104.0000             GW IRRIGATION =           0.0000
           SW IRRIGATION =           0.0000             SW IRRIGATION =           0.0000
        SYSTEM LOSSES GW =           0.0000          SYSTEM LOSSES GW =           0.0000
        SYSTEM LOSSES SW =           0.0000          SYSTEM LOSSES SW =           0.0000

               TOTAL OUT =  1203775104.0000                 TOTAL OUT =           0.0000

                IN - OUT =           0.0000                  IN - OUT =           0.0000

     PERCENT DISCREPANCY =           0.00         PERCENT DISCREPANCY =           0.00



1
  VOLUMETRIC BUDGET FOR ENTIRE MODEL AT END OF TIME STEP   30, STRESS PERIOD  36
  ------------------------------------------------------------------------------

     CUMULATIVE VOLUMES      L**3       RATES FOR THIS TIME STEP      L**3/T
     ------------------                 ------------------------

           IN:                                      IN:
           ---                                      ---
             STORAGE     =  1582485760.0000               STORAGE     =           9.4339
       CONSTANT HEAD     =           0.0000         CONSTANT HEAD     =           0.0000
     HEAD DEP BOUNDS     =    26578182.0000       HEAD DEP BOUNDS     =           0.2899
      STREAM LEAKAGE     =  1109792640.0000        STREAM LEAKAGE     =          12.0356
        UZF RECHARGE     =       73223.9531          UZF RECHARGE     =           0.0000
               GW ET     =           0.0000                 GW ET     =           0.0000
     SURFACE LEAKAGE     =           0.0000       SURFACE LEAKAGE     =           0.0000
           AG WELLS      =           0.0000             AG WELLS      =           0.0000

                TOTAL IN =  2718929920.0000                  TOTAL IN =          21.7594

          OUT:                                     OUT:
          ----                                     ----
             STORAGE     =   584403968.0000               STORAGE     =          12.2253
       CONSTANT HEAD     =           0.0000         CONSTANT HEAD     =           0.0000
     HEAD DEP BOUNDS     =    26615966.0000       HEAD DEP BOUNDS     =           0.2873
      STREAM LEAKAGE     =   904139904.0000        STREAM LEAKAGE     =           9.2468
        UZF RECHARGE     =           0.0000          UZF RECHARGE     =           0.0000
               GW ET     =           0.0000                 GW ET     =           0.0000
     SURFACE LEAKAGE     =           0.0000       SURFACE LEAKAGE     =           0.0000
           AG WELLS      =  1203775104.0000             AG WELLS      =           0.0000

               TOTAL OUT =  2718935040.0000                 TOTAL OUT =          21.7594

                IN - OUT =       -5120.0000                  IN - OUT =       1.3351E-05

     PERCENT DISCREPANCY =          -0.00         PERCENT DISCREPANCY =           0.00






         TIME SUMMARY AT END OF TIME STEP   30 IN STRESS PERIOD   36
                    SECONDS     MINUTES      HOURS       DAYS        YEARS
                    -----------------------------------------------------------
   TIME STEP LENGTH  87667.      1461.1      24.352      1.0147     2.77799E-03
 STRESS PERIOD TIME 2.63000E+06  43833.      730.56      30.440     8.33397E-02
         TOTAL TIME 9.21360E+07 1.53560E+06  25593.      1066.4      2.9196    
1
1
                            STRESS PERIOD NO.   37, LENGTH =   2630000.    
                            -----------------------------------------------

                              NUMBER OF TIME STEPS =    30

                               MULTIPLIER FOR DELT =     1.000

                            INITIAL TIME STEP SIZE =   87666.66    

 REUSING NON-PARAMETER GHB CELLS FROM LAST STRESS PERIOD

      2 GHB CELLS

 REUSING STREAM SEGMENT DATA FROM LAST STRESS PERIOD



            AREAL INFILTRATION RATE
 READING ON UNIT   19 WITH FORMAT: (FREE)              

            1           2           3           4           5           6           7           8           9          10
 ........................................................................................................................
   1   1.0000E-10  2.0000E-10   0.000       0.000       0.000       0.000       0.000       0.000       0.000       0.000    
   2   2.0000E-10  1.0000E-10  2.0000E-10   0.000       0.000      8.0000E-10  8.0000E-10  5.0000E-10   0.000       0.000    
   3    0.000      5.0000E-10  1.0000E-10  1.0000E-10  8.0000E-10  8.0000E-10  5.0000E-10  5.0000E-10   0.000       0.000    
   4   8.0000E-10  5.0000E-10  1.0000E-10  1.0000E-10  1.0000E-10  1.0000E-10  1.0000E-10  1.0000E-10  2.0000E-10   0.000    
   5   8.0000E-10  5.0000E-10  1.0000E-10  1.0000E-10  1.0000E-10  1.0000E-10  1.0000E-10  1.0000E-10  1.0000E-10  1.0000E-10
   6   8.0000E-10  5.0000E-10  5.0000E-10  2.0000E-10  2.0000E-10  1.0000E-10  1.0000E-10  1.0000E-10  1.0000E-10  5.0000E-10
   7   8.0000E-10  5.0000E-10  5.0000E-10  2.0000E-10  2.0000E-10  1.0000E-10  1.0000E-10  2.0000E-10  2.0000E-10   0.000    
   8    0.000      5.0000E-10  5.0000E-10  2.0000E-10  2.0000E-10  1.0000E-10  1.0000E-10  2.0000E-10  5.0000E-10   0.000    
   9    0.000      5.0000E-10  5.0000E-10  2.0000E-10  2.0000E-10  1.0000E-10  1.0000E-10  2.0000E-10  5.0000E-10   0.000    
  10    0.000      5.0000E-10  5.0000E-10  2.0000E-10  2.0000E-10  1.0000E-10  1.0000E-10  2.0000E-10  5.0000E-10  8.0000E-10
  11    0.000      1.0000E-10  1.0000E-10  1.0000E-10  1.0000E-10  1.0000E-10  1.0000E-10  2.0000E-10  5.0000E-10   0.000    
  12   1.0000E-10  1.0000E-10  1.0000E-10  1.0000E-10  1.0000E-10  1.0000E-10  1.0000E-10  1.0000E-10  2.0000E-10   0.000    
  13   1.0000E-10  1.0000E-10  2.0000E-10  2.0000E-10  2.0000E-10  2.0000E-10  2.0000E-10  1.0000E-10  1.0000E-10   0.000    
  14    0.000      2.0000E-10  5.0000E-10  5.0000E-10  5.0000E-10  5.0000E-10  5.0000E-10  2.0000E-10  1.0000E-10   0.000    
  15    0.000       0.000      8.0000E-10  8.0000E-10  8.0000E-10  8.0000E-10   0.000       0.000       0.000       0.000    

                  ET RATE =  5.000000E-10

 USING ET EXTINCTION DEPTH FROM PREVIOUS STRESS PERIOD. CURRENT PERIOD IS:      37

 USING EXTINCTION WATER CONTENT FROM PREVIOUS STRESS PERIOD. CURRENT PERIOD IS:      37

 USING AIR ENTRY PRESSURE FROM PREVIOUS STRESS PERIOD. CURRENT PERIOD IS:      37

 USING ROOT PRESSURE HEAD FROM PREVIOUS STRESS PERIOD. CURRENT PERIOD IS:      37

 USING ROOT ACTIVITY FROM PREVIOUS STRESS PERIOD. CURRENT PERIOD IS:      37

 PROCESSING AG STRESS PERIOD DATA

 READING AG STRESS PERIOD DATA

 READING IRRIGATION SEGMENT

 READING IRRIGATION WELL

 READING SUPPLEMENTAL WELL

 NO IRRPOND OR REUSING IRRPOND DATA FROM LAST STRESS PERIOD

 END PROCESSING AG STRESS PERIOD DATA OPTIONS
 
 SOLVING FOR HEAD 
                                                   Max.-Head-Change                         Max.-Flux-Residual
  Residual-Control   Outer-Iter.   Inner-Iter.     Column Row Layer    Maximum-Head-Change  Column Row Layer    Maximum-Flux-Residual          L2-NORM 
          0                 1           2             4    7     1       0.3549648864E-01       4    7    1         0.1867681408E+01      0.3972240405E+01
          0                 2           2             4    7     1      -0.3452867707E-02       4    7    1        -0.1867699897E+00      0.3972222695E+00
          0                 3           2             4    7     1       0.2351272233E-03       4    7    1         0.1307388744E-01      0.2780528818E-01
          0                 4           1             4    7     1      -0.9355933668E-05       4    7    1        -0.5347228282E-03      0.1137216448E-02

    ------------------------------------------------
       NWT REQUIRED            4 OUTER ITERATIONS 
       AND A TOTAL OF          7 INNER ITERATIONS.
    ------------------------------------------------

 NO OUTPUT CONTROL FOR STRESS PERIOD   37   TIME STEP    1
 
 SOLVING FOR HEAD 
                                                   Max.-Head-Change                         Max.-Flux-Residual
  Residual-Control   Outer-Iter.   Inner-Iter.     Column Row Layer    Maximum-Head-Change  Column Row Layer    Maximum-Flux-Residual          L2-NORM 
          0                 1           2             4    7     1       0.3505396010E-01       4    7    1         0.1844296264E+01      0.3933599473E+01
          0                 2           2             4    7     1      -0.3409821069E-02       4    7    1        -0.1844314292E+00      0.3933549848E+00
          0                 3           2             4    7     1       0.2321959132E-03       4    7    1         0.1291018855E-01      0.2753428694E-01
          0                 4           1             4    7     1      -0.9239293866E-05       4    7    1        -0.5280275225E-03      0.1126117064E-02

    ------------------------------------------------
       NWT REQUIRED            4 OUTER ITERATIONS 
       AND A TOTAL OF          7 INNER ITERATIONS.
    ------------------------------------------------

 NO OUTPUT CONTROL FOR STRESS PERIOD   37   TIME STEP    2
 
 SOLVING FOR HEAD 
                                                   Max.-Head-Change                         Max.-Flux-Residual
  Residual-Control   Outer-Iter.   Inner-Iter.     Column Row Layer    Maximum-Head-Change  Column Row Layer    Maximum-Flux-Residual          L2-NORM 
          0                 1           2             4    7     1       0.3461895187E-01       4    7    1         0.1821308275E+01      0.3893344917E+01
          0                 2           2             4    7     1      -0.3367505971E-02       4    7    1        -0.1821325855E+00      0.3893299522E+00
          0                 3           2             4    7     1       0.2293144187E-03       4    7    1         0.1274926986E-01      0.2725259589E-01
          0                 4           1             4    7     1      -0.9124636677E-05       4    7    1        -0.5214459502E-03      0.1114602657E-02

    ------------------------------------------------
       NWT REQUIRED            4 OUTER ITERATIONS 
       AND A TOTAL OF          7 INNER ITERATIONS.
    ------------------------------------------------

 NO OUTPUT CONTROL FOR STRESS PERIOD   37   TIME STEP    3
 
 SOLVING FOR HEAD 
                                                   Max.-Head-Change                         Max.-Flux-Residual
  Residual-Control   Outer-Iter.   Inner-Iter.     Column Row Layer    Maximum-Head-Change  Column Row Layer    Maximum-Flux-Residual          L2-NORM 
          0                 1           2             4    7     1       0.3419132246E-01       4    7    1         0.1798710199E+01      0.3853804481E+01
          0                 2           2             4    7     1      -0.3325908647E-02       4    7    1        -0.1798727342E+00      0.3853763196E+00
          0                 3           2             4    7     1       0.2264818014E-03       4    7    1         0.1259108062E-01      0.2697587690E-01
          0                 4           1             4    7     1      -0.9011923993E-05       4    7    1        -0.5149759911E-03      0.1103291325E-02

    ------------------------------------------------
       NWT REQUIRED            4 OUTER ITERATIONS 
       AND A TOTAL OF          7 INNER ITERATIONS.
    ------------------------------------------------

 NO OUTPUT CONTROL FOR STRESS PERIOD   37   TIME STEP    4
 
 SOLVING FOR HEAD 
                                                   Max.-Head-Change                         Max.-Flux-Residual
  Residual-Control   Outer-Iter.   Inner-Iter.     Column Row Layer    Maximum-Head-Change  Column Row Layer    Maximum-Flux-Residual          L2-NORM 
          0                 1           2             4    7     1       0.3377080222E-01       4    7    1         0.1776487444E+01      0.3814961020E+01
          0                 2           2             4    7     1      -0.3285002868E-02       4    7    1        -0.1776504161E+00      0.3814922770E+00
          0                 3           2             4    7     1       0.2236962753E-03       4    7    1         0.1243551869E-01      0.2670400799E-01
          0                 4           1             4    7     1      -0.8901085011E-05       4    7    1        -0.5086134770E-03      0.1092158180E-02

    ------------------------------------------------
       NWT REQUIRED            4 OUTER ITERATIONS 
       AND A TOTAL OF          7 INNER ITERATIONS.
    ------------------------------------------------

 NO OUTPUT CONTROL FOR STRESS PERIOD   37   TIME STEP    5
 
 SOLVING FOR HEAD 
                                                   Max.-Head-Change                         Max.-Flux-Residual
  Residual-Control   Outer-Iter.   Inner-Iter.     Column Row Layer    Maximum-Head-Change  Column Row Layer    Maximum-Flux-Residual          L2-NORM 
          0                 1           2             4    7     1       0.3335739582E-01       4    7    1         0.1754640537E+01      0.3776801211E+01
          0                 2           2             4    7     1      -0.3244789087E-02       4    7    1        -0.1754656840E+00      0.3776766276E+00
          0                 3           2             4    7     1       0.2209578719E-03       4    7    1         0.1228258774E-01      0.2643694853E-01
          0                 4           1             4    7     1      -0.8792121918E-05       4    7    1        -0.5023586191E-03      0.1081237373E-02

    ------------------------------------------------
       NWT REQUIRED            4 OUTER ITERATIONS 
       AND A TOTAL OF          7 INNER ITERATIONS.
    ------------------------------------------------

 NO OUTPUT CONTROL FOR STRESS PERIOD   37   TIME STEP    6
 
 SOLVING FOR HEAD 
                                                   Max.-Head-Change                         Max.-Flux-Residual
  Residual-Control   Outer-Iter.   Inner-Iter.     Column Row Layer    Maximum-Head-Change  Column Row Layer    Maximum-Flux-Residual          L2-NORM 
          0                 1           2             4    7     1       0.3295096550E-01       4    7    1         0.1733162468E+01      0.3739301555E+01
          0                 2           2             4    7     1      -0.3205253906E-02       4    7    1        -0.1733178367E+00      0.3739269195E+00
          0                 3           2             4    7     1       0.2182656786E-03       4    7    1         0.1213223876E-01      0.2617448572E-01
          0                 4           1             4    7     1      -0.8684996607E-05       4    7    1        -0.4962093230E-03      0.1070519676E-02

    ------------------------------------------------
       NWT REQUIRED            4 OUTER ITERATIONS 
       AND A TOTAL OF          7 INNER ITERATIONS.
    ------------------------------------------------

 NO OUTPUT CONTROL FOR STRESS PERIOD   37   TIME STEP    7
 
 SOLVING FOR HEAD 
                                                   Max.-Head-Change                         Max.-Flux-Residual
  Residual-Control   Outer-Iter.   Inner-Iter.     Column Row Layer    Maximum-Head-Change  Column Row Layer    Maximum-Flux-Residual          L2-NORM 
          0                 1           2             4    7     1       0.3255137818E-01       4    7    1         0.1712046093E+01      0.3702447149E+01
          0                 2           2             4    7     1      -0.3166384376E-02       4    7    1        -0.1712061598E+00      0.3702417473E+00
          0                 3           2             4    7     1       0.2156188132E-03       4    7    1         0.1198442169E-01      0.2591656589E-01
          0                 4           1             4    7     1      -0.8579675346E-05       4    7    1        -0.4901635889E-03      0.1059977124E-02

    ------------------------------------------------
       NWT REQUIRED            4 OUTER ITERATIONS 
       AND A TOTAL OF          7 INNER ITERATIONS.
    ------------------------------------------------

 NO OUTPUT CONTROL FOR STRESS PERIOD   37   TIME STEP    8
 
 SOLVING FOR HEAD 
                                                   Max.-Head-Change                         Max.-Flux-Residual
  Residual-Control   Outer-Iter.   Inner-Iter.     Column Row Layer    Maximum-Head-Change  Column Row Layer    Maximum-Flux-Residual          L2-NORM 
          0                 1           2             4    7     1       0.3215850051E-01       4    7    1         0.1691284512E+01      0.3666219742E+01
          0                 2           2             4    7     1      -0.3128167529E-02       4    7    1        -0.1691299635E+00      0.3666191909E+00
          0                 3           2             4    7     1       0.2130163932E-03       4    7    1         0.1183908825E-01      0.2566298015E-01
          0                 4           1             4    7     1      -0.8476122559E-05       4    7    1        -0.4842194469E-03      0.1049589984E-02

    ------------------------------------------------
       NWT REQUIRED            4 OUTER ITERATIONS 
       AND A TOTAL OF          7 INNER ITERATIONS.
    ------------------------------------------------

 NO OUTPUT CONTROL FOR STRESS PERIOD   37   TIME STEP    9
 
 SOLVING FOR HEAD 
                                                   Max.-Head-Change                         Max.-Flux-Residual
  Residual-Control   Outer-Iter.   Inner-Iter.     Column Row Layer    Maximum-Head-Change  Column Row Layer    Maximum-Flux-Residual          L2-NORM 
          0                 1           2             4    7     1       0.3177220275E-01       4    7    1         0.1670870813E+01      0.3630615255E+01
          0                 2           2             4    7     1      -0.3090590741E-02       4    7    1        -0.1670885563E+00      0.3630589400E+00
          0                 3           2             4    7     1       0.2104575585E-03       4    7    1         0.1169619004E-01      0.2541380564E-01
          0                 4           1             4    7     1      -0.8374304055E-05       4    7    1        -0.4783748859E-03      0.1039419656E-02

    ------------------------------------------------
       NWT REQUIRED            4 OUTER ITERATIONS 
       AND A TOTAL OF          7 INNER ITERATIONS.
    ------------------------------------------------

 NO OUTPUT CONTROL FOR STRESS PERIOD   37   TIME STEP   10
 
 SOLVING FOR HEAD 
                                                   Max.-Head-Change                         Max.-Flux-Residual
  Residual-Control   Outer-Iter.   Inner-Iter.     Column Row Layer    Maximum-Head-Change  Column Row Layer    Maximum-Flux-Residual          L2-NORM 
          0                 1           2             4    7     1       0.3139235898E-01       4    7    1         0.1650798268E+01      0.3595608197E+01
          0                 2           2             4    7     1      -0.3053641765E-02       4    7    1        -0.1650812654E+00      0.3595584090E+00
          0                 3           2             4    7     1       0.2079414757E-03       4    7    1         0.1155567996E-01      0.2516878219E-01
          0                 4           1             4    7     1      -0.8274186791E-05       4    7    1        -0.4726280272E-03      0.1029372221E-02

    ------------------------------------------------
       NWT REQUIRED            4 OUTER ITERATIONS 
       AND A TOTAL OF          7 INNER ITERATIONS.
    ------------------------------------------------

 NO OUTPUT CONTROL FOR STRESS PERIOD   37   TIME STEP   11
 
 SOLVING FOR HEAD 
                                                   Max.-Head-Change                         Max.-Flux-Residual
  Residual-Control   Outer-Iter.   Inner-Iter.     Column Row Layer    Maximum-Head-Change  Column Row Layer    Maximum-Flux-Residual          L2-NORM 
          0                 1           2             4    7     1       0.3101884052E-01       4    7    1         0.1631060347E+01      0.3561185873E+01
          0                 2           2             4    7     1      -0.3017308084E-02       4    7    1        -0.1631074380E+00      0.3561163598E+00
          0                 3           2             4    7     1       0.2054672919E-03       4    7    1         0.1141751232E-01      0.2492788188E-01
          0                 4           1             4    7     1      -0.8175736690E-05       4    7    1        -0.4669769626E-03      0.1019540337E-02

    ------------------------------------------------
       NWT REQUIRED            4 OUTER ITERATIONS 
       AND A TOTAL OF          7 INNER ITERATIONS.
    ------------------------------------------------

 NO OUTPUT CONTROL FOR STRESS PERIOD   37   TIME STEP   12
 
 SOLVING FOR HEAD 
                                                   Max.-Head-Change                         Max.-Flux-Residual
  Residual-Control   Outer-Iter.   Inner-Iter.     Column Row Layer    Maximum-Head-Change  Column Row Layer    Maximum-Flux-Residual          L2-NORM 
          0                 1           2             4    7     1       0.3065165852E-01       4    7    1         0.1611657639E+01      0.3527344488E+01
          0                 2           2             4    7     1      -0.2981590781E-02       4    7    1        -0.1611671328E+00      0.3527323640E+00
          0                 3           2             4    7     1       0.2030350807E-03       4    7    1         0.1128169122E-01      0.2469102585E-01
          0                 4           1             4    7     1      -0.8078956745E-05       4    7    1        -0.4614218622E-03      0.1009848305E-02

    ------------------------------------------------
       NWT REQUIRED            4 OUTER ITERATIONS 
       AND A TOTAL OF          7 INNER ITERATIONS.
    ------------------------------------------------

 NO OUTPUT CONTROL FOR STRESS PERIOD   37   TIME STEP   13
 
 SOLVING FOR HEAD 
                                                   Max.-Head-Change                         Max.-Flux-Residual
  Residual-Control   Outer-Iter.   Inner-Iter.     Column Row Layer    Maximum-Head-Change  Column Row Layer    Maximum-Flux-Residual          L2-NORM 
          0                 1           2             4    7     1       0.3029068348E-01       4    7    1         0.1592583464E+01      0.3494062878E+01
          0                 2           2             4    7     1      -0.2946477259E-02       4    7    1        -0.1592596818E+00      0.3494043234E+00
          0                 3           2             4    7     1       0.2006439853E-03       4    7    1         0.1114816991E-01      0.2445805856E-01
          0                 4           1             4    7     1      -0.7983813224E-05       4    7    1        -0.4559608567E-03      0.1000311627E-02

    ------------------------------------------------
       NWT REQUIRED            4 OUTER ITERATIONS 
       AND A TOTAL OF          7 INNER ITERATIONS.
    ------------------------------------------------

 NO OUTPUT CONTROL FOR STRESS PERIOD   37   TIME STEP   14
 
 SOLVING FOR HEAD 
                                                   Max.-Head-Change                         Max.-Flux-Residual
  Residual-Control   Outer-Iter.   Inner-Iter.     Column Row Layer    Maximum-Head-Change  Column Row Layer    Maximum-Flux-Residual          L2-NORM 
          0                 1           2             4    7     1       0.2993565331E-01       4    7    1         0.1573823847E+01      0.3461317984E+01
          0                 2           2             4    7     1      -0.2911942025E-02       4    7    1        -0.1573836875E+00      0.3461299416E+00
          0                 3           2             4    7     1       0.1982922684E-03       4    7    1         0.1101685057E-01      0.2422886859E-01
          0                 4           1             4    7     1      -0.7890235898E-05       4    7    1        -0.4505898712E-03      0.9909494518E-03

    ------------------------------------------------
       NWT REQUIRED            4 OUTER ITERATIONS 
       AND A TOTAL OF          7 INNER ITERATIONS.
    ------------------------------------------------

 NO OUTPUT CONTROL FOR STRESS PERIOD   37   TIME STEP   15
 
 SOLVING FOR HEAD 
                                                   Max.-Head-Change                         Max.-Flux-Residual
  Residual-Control   Outer-Iter.   Inner-Iter.     Column Row Layer    Maximum-Head-Change  Column Row Layer    Maximum-Flux-Residual          L2-NORM 
          0                 1           2             4    7     1       0.2958658703E-01       4    7    1         0.1555379719E+01      0.3429120199E+01
          0                 2           2             4    7     1      -0.2877986926E-02       4    7    1        -0.1555392429E+00      0.3429102437E+00
          0                 3           2             4    7     1       0.1959800566E-03       4    7    1         0.1088773968E-01      0.2400347736E-01
          0                 4           1             4    7     1      -0.7798230755E-05       4    7    1        -0.4453092370E-03      0.9817104081E-03

    ------------------------------------------------
       NWT REQUIRED            4 OUTER ITERATIONS 
       AND A TOTAL OF          7 INNER ITERATIONS.
    ------------------------------------------------

 NO OUTPUT CONTROL FOR STRESS PERIOD   37   TIME STEP   16
 
 SOLVING FOR HEAD 
                                                   Max.-Head-Change                         Max.-Flux-Residual
  Residual-Control   Outer-Iter.   Inner-Iter.     Column Row Layer    Maximum-Head-Change  Column Row Layer    Maximum-Flux-Residual          L2-NORM 
          0                 1           2             4    7     1       0.2924335978E-01       4    7    1         0.1537244806E+01      0.3397439374E+01
          0                 2           2             4    7     1      -0.2844599819E-02       4    7    1        -0.1537257208E+00      0.3397422456E+00
          0                 3           2             4    7     1       0.1937065230E-03       4    7    1         0.1076079338E-01      0.2378172533E-01
          0                 4           1             4    7     1      -0.7707764869E-05       4    7    1        -0.4401171193E-03      0.9726593496E-03

    ------------------------------------------------
       NWT REQUIRED            4 OUTER ITERATIONS 
       AND A TOTAL OF          7 INNER ITERATIONS.
    ------------------------------------------------

 NO OUTPUT CONTROL FOR STRESS PERIOD   37   TIME STEP   17
 
 SOLVING FOR HEAD 
                                                   Max.-Head-Change                         Max.-Flux-Residual
  Residual-Control   Outer-Iter.   Inner-Iter.     Column Row Layer    Maximum-Head-Change  Column Row Layer    Maximum-Flux-Residual          L2-NORM 
          0                 1           2             4    7     1       0.2890571814E-01       4    7    1         0.1519405375E+01      0.3366272945E+01
          0                 2           2             4    7     1      -0.2811756051E-02       4    7    1        -0.1519417475E+00      0.3366256754E+00
          0                 3           2             4    7     1       0.1914699884E-03       4    7    1         0.1063591547E-01      0.2356358080E-01
          0                 4           1             4    7     1      -0.7618771003E-05       4    7    1        -0.4350096162E-03      0.9637359172E-03

    ------------------------------------------------
       NWT REQUIRED            4 OUTER ITERATIONS 
       AND A TOTAL OF          7 INNER ITERATIONS.
    ------------------------------------------------

 NO OUTPUT CONTROL FOR STRESS PERIOD   37   TIME STEP   18
 
 SOLVING FOR HEAD 
                                                   Max.-Head-Change                         Max.-Flux-Residual
  Residual-Control   Outer-Iter.   Inner-Iter.     Column Row Layer    Maximum-Head-Change  Column Row Layer    Maximum-Flux-Residual          L2-NORM 
          0                 1           2             4    7     1       0.2857382055E-01       4    7    1         0.1501870068E+01      0.3335607461E+01
          0                 2           2             4    7     1      -0.2779471035E-02       4    7    1        -0.1501881876E+00      0.3335592024E+00
          0                 3           2             4    7     1       0.1892715028E-03       4    7    1         0.1051316650E-01      0.2334894030E-01
          0                 4           1             4    7     1      -0.7531291411E-05       4    7    1        -0.4299891714E-03      0.9549677760E-03

    ------------------------------------------------
       NWT REQUIRED            4 OUTER ITERATIONS 
       AND A TOTAL OF          7 INNER ITERATIONS.
    ------------------------------------------------

 NO OUTPUT CONTROL FOR STRESS PERIOD   37   TIME STEP   19
 
 SOLVING FOR HEAD 
                                                   Max.-Head-Change                         Max.-Flux-Residual
  Residual-Control   Outer-Iter.   Inner-Iter.     Column Row Layer    Maximum-Head-Change  Column Row Layer    Maximum-Flux-Residual          L2-NORM 
          0                 1           2             4    7     1       0.2824727458E-01       4    7    1         0.1484618055E+01      0.3305421192E+01
          0                 2           2             4    7     1      -0.2747706596E-02       4    7    1        -0.1484629578E+00      0.3305406413E+00
          0                 3           2             4    7     1       0.1871084661E-03       4    7    1         0.1039240062E-01      0.2313765209E-01
          0                 4           1             4    7     1      -0.7445221902E-05       4    7    1        -0.4250498332E-03      0.9463112627E-03

    ------------------------------------------------
       NWT REQUIRED            4 OUTER ITERATIONS 
       AND A TOTAL OF          7 INNER ITERATIONS.
    ------------------------------------------------

 NO OUTPUT CONTROL FOR STRESS PERIOD   37   TIME STEP   20
 
 SOLVING FOR HEAD 
                                                   Max.-Head-Change                         Max.-Flux-Residual
  Residual-Control   Outer-Iter.   Inner-Iter.     Column Row Layer    Maximum-Head-Change  Column Row Layer    Maximum-Flux-Residual          L2-NORM 
          0                 1           2             4    7     1       0.2792624145E-01       4    7    1         0.1467658037E+01      0.3275722257E+01
          0                 2           2             4    7     1      -0.2716478419E-02       4    7    1        -0.1467669283E+00      0.3275708061E+00
          0                 3           2             4    7     1       0.1849819469E-03       4    7    1         0.1027367878E-01      0.2292977671E-01
          0                 4           1             4    7     1      -0.7360605649E-05       4    7    1        -0.4201940937E-03      0.9378170957E-03

    ------------------------------------------------
       NWT REQUIRED            4 OUTER ITERATIONS 
       AND A TOTAL OF          7 INNER ITERATIONS.
    ------------------------------------------------

 NO OUTPUT CONTROL FOR STRESS PERIOD   37   TIME STEP   21
 
 SOLVING FOR HEAD 
                                                   Max.-Head-Change                         Max.-Flux-Residual
  Residual-Control   Outer-Iter.   Inner-Iter.     Column Row Layer    Maximum-Head-Change  Column Row Layer    Maximum-Flux-Residual          L2-NORM 
          0                 1           2             4    7     1       0.2761047135E-01       4    7    1         0.1450976587E+01      0.3246491007E+01
          0                 2           2             4    7     1      -0.2685762201E-02       4    7    1        -0.1450987563E+00      0.3246477314E+00
          0                 3           2             4    7     1       0.1828902903E-03       4    7    1         0.1015690694E-01      0.2272513960E-01
          0                 4           1             4    7     1      -0.7277376337E-05       4    7    1        -0.4154181183E-03      0.9294486040E-03

    ------------------------------------------------
       NWT REQUIRED            4 OUTER ITERATIONS 
       AND A TOTAL OF          7 INNER ITERATIONS.
    ------------------------------------------------

 NO OUTPUT CONTROL FOR STRESS PERIOD   37   TIME STEP   22
 
 SOLVING FOR HEAD 
                                                   Max.-Head-Change                         Max.-Flux-Residual
  Residual-Control   Outer-Iter.   Inner-Iter.     Column Row Layer    Maximum-Head-Change  Column Row Layer    Maximum-Flux-Residual          L2-NORM 
          0                 1           2             4    7     1       0.2729985515E-01       4    7    1         0.1434568014E+01      0.3217716513E+01
          0                 2           2             4    7     1      -0.2655547328E-02       4    7    1        -0.1434578727E+00      0.3217703071E+00
          0                 3           2             4    7     1       0.1808327730E-03       4    7    1         0.1004204529E-01      0.2252373358E-01
          0                 4           1             4    7     1      -0.7195505762E-05       4    7    1        -0.4107202540E-03      0.9212056190E-03

    ------------------------------------------------
       NWT REQUIRED            4 OUTER ITERATIONS 
       AND A TOTAL OF          7 INNER ITERATIONS.
    ------------------------------------------------

 NO OUTPUT CONTROL FOR STRESS PERIOD   37   TIME STEP   23
 
 SOLVING FOR HEAD 
                                                   Max.-Head-Change                         Max.-Flux-Residual
  Residual-Control   Outer-Iter.   Inner-Iter.     Column Row Layer    Maximum-Head-Change  Column Row Layer    Maximum-Flux-Residual          L2-NORM 
          0                 1           2             4    7     1       0.2699441973E-01       4    7    1         0.1418433924E+01      0.3189389942E+01
          0                 2           2             4    7     1      -0.2625836413E-02       4    7    1        -0.1418444382E+00      0.3189376894E+00
          0                 3           2             4    7     1       0.1788095739E-03       4    7    1         0.9929105064E-02      0.2232547165E-01
          0                 4           1             4    7     1      -0.7115001176E-05       4    7    1        -0.4061010106E-03      0.9131016330E-03

    ------------------------------------------------
       NWT REQUIRED            4 OUTER ITERATIONS 
       AND A TOTAL OF          7 INNER ITERATIONS.
    ------------------------------------------------

 NO OUTPUT CONTROL FOR STRESS PERIOD   37   TIME STEP   24
 
 SOLVING FOR HEAD 
                                                   Max.-Head-Change                         Max.-Flux-Residual
  Residual-Control   Outer-Iter.   Inner-Iter.     Column Row Layer    Maximum-Head-Change  Column Row Layer    Maximum-Flux-Residual          L2-NORM 
          0                 1           2             4    7     1       0.2669391971E-01       4    7    1         0.1402561184E+01      0.3161498345E+01
          0                 2           2             4    7     1      -0.2596605589E-02       4    7    1        -0.1402571393E+00      0.3161485842E+00
          0                 3           2             4    7     1       0.1768190666E-03       4    7    1         0.9817994341E-02      0.2213024097E-01
          0                 4           1             4    7     1      -0.7035796610E-05       4    7    1        -0.4015565592E-03      0.9051440177E-03

    ------------------------------------------------
       NWT REQUIRED            4 OUTER ITERATIONS 
       AND A TOTAL OF          7 INNER ITERATIONS.
    ------------------------------------------------

 NO OUTPUT CONTROL FOR STRESS PERIOD   37   TIME STEP   25
 
 SOLVING FOR HEAD 
                                                   Max.-Head-Change                         Max.-Flux-Residual
  Residual-Control   Outer-Iter.   Inner-Iter.     Column Row Layer    Maximum-Head-Change  Column Row Layer    Maximum-Flux-Residual          L2-NORM 
          0                 1           2             4    7     1       0.2639838900E-01       4    7    1         0.1386951598E+01      0.3134042024E+01
          0                 2           2             4    7     1      -0.2567858152E-02       4    7    1        -0.1386961565E+00      0.3134029802E+00
          0                 3           2             4    7     1       0.1748614762E-03       4    7    1         0.9708725719E-02      0.2193805616E-01
          0                 4           1             4    7     1      -0.6957902427E-05       4    7    1        -0.3970874686E-03      0.8972599500E-03

    ------------------------------------------------
       NWT REQUIRED            4 OUTER ITERATIONS 
       AND A TOTAL OF          7 INNER ITERATIONS.
    ------------------------------------------------

 NO OUTPUT CONTROL FOR STRESS PERIOD   37   TIME STEP   26
 
 SOLVING FOR HEAD 
                                                   Max.-Head-Change                         Max.-Flux-Residual
  Residual-Control   Outer-Iter.   Inner-Iter.     Column Row Layer    Maximum-Head-Change  Column Row Layer    Maximum-Flux-Residual          L2-NORM 
          0                 1           2             4    7     1       0.2610758755E-01       4    7    1         0.1371592397E+01      0.3107006129E+01
          0                 2           2             4    7     1      -0.2539570754E-02       4    7    1        -0.1371602128E+00      0.3106994320E+00
          0                 3           2             4    7     1       0.1729352127E-03       4    7    1         0.9601209838E-02      0.2174880392E-01
          0                 4           1             4    7     1      -0.6881254615E-05       4    7    1        -0.3926900688E-03      0.8895153583E-03

    ------------------------------------------------
       NWT REQUIRED            4 OUTER ITERATIONS 
       AND A TOTAL OF          7 INNER ITERATIONS.
    ------------------------------------------------

 NO OUTPUT CONTROL FOR STRESS PERIOD   37   TIME STEP   27
 
 SOLVING FOR HEAD 
                                                   Max.-Head-Change                         Max.-Flux-Residual
  Residual-Control   Outer-Iter.   Inner-Iter.     Column Row Layer    Maximum-Head-Change  Column Row Layer    Maximum-Flux-Residual          L2-NORM 
          0                 1           2             4    7     1       0.2582155146E-01       4    7    1         0.1356485664E+01      0.3080377818E+01
          0                 2           2             4    7     1      -0.2511746904E-02       4    7    1        -0.1356495166E+00      0.3080366094E+00
          0                 3           2             4    7     1       0.1710405152E-03       4    7    1         0.9495461290E-02      0.2156239857E-01
          0                 4           1             4    7     1      -0.6805862961E-05       4    7    1        -0.3883649445E-03      0.8818918764E-03

    ------------------------------------------------
       NWT REQUIRED            4 OUTER ITERATIONS 
       AND A TOTAL OF          7 INNER ITERATIONS.
    ------------------------------------------------

 NO OUTPUT CONTROL FOR STRESS PERIOD   37   TIME STEP   28
 
 SOLVING FOR HEAD 
                                                   Max.-Head-Change                         Max.-Flux-Residual
  Residual-Control   Outer-Iter.   Inner-Iter.     Column Row Layer    Maximum-Head-Change  Column Row Layer    Maximum-Flux-Residual          L2-NORM 
          0                 1           2             4    7     1       0.2554004735E-01       4    7    1         0.1341618740E+01      0.3054157657E+01
          0                 2           2             4    7     1      -0.2484363900E-02       4    7    1        -0.1341628019E+00      0.3054131621E+00
          0                 3           2             4    7     1       0.1691758371E-03       4    7    1         0.9391391399E-02      0.2137842543E-01
          0                 4           1             4    7     1      -0.6731665755E-05       4    7    1        -0.3841084949E-03      0.8743917408E-03

    ------------------------------------------------
       NWT REQUIRED            4 OUTER ITERATIONS 
       AND A TOTAL OF          7 INNER ITERATIONS.
    ------------------------------------------------

 NO OUTPUT CONTROL FOR STRESS PERIOD   37   TIME STEP   29
 
 SOLVING FOR HEAD 
                                                   Max.-Head-Change                         Max.-Flux-Residual
  Residual-Control   Outer-Iter.   Inner-Iter.     Column Row Layer    Maximum-Head-Change  Column Row Layer    Maximum-Flux-Residual          L2-NORM 
          0                 1           2             4    7     1       0.2526324852E-01       4    7    1         0.1327001323E+01      0.3028330872E+01
          0                 2           2             4    7     1      -0.2457437848E-02       4    7    1        -0.1327010384E+00      0.3027920243E+00
          0                 3           2             4    7     1       0.1673422760E-03       4    7    1         0.9289068129E-02      0.2119529047E-01
          0                 4           1             4    7     1      -0.6658706402E-05       4    7    1        -0.3799234573E-03      0.8892318366E-03

    ------------------------------------------------
       NWT REQUIRED            4 OUTER ITERATIONS 
       AND A TOTAL OF          7 INNER ITERATIONS.
    ------------------------------------------------

 NO OUTPUT CONTROL FOR STRESS PERIOD   37   TIME STEP   30



 STREAM LISTING     PERIOD     37   STEP       30

 LAYER ROW COL. STREAM  RCH.  FLOW INTO     FLOW TO   FLOW OUT OF   OVRLND.     DIRECT     STREAM       STREAM     STREAM     STREAM   STREAMBED  STREAMBED
                SEG.NO.  NO.  STRM. RCH.    AQUIFER    STRM. RCH.    RUNOFF     PRECIP       ET          HEAD       DEPTH      WIDTH   CONDCTNC.   GRADIENT

   1    1    1     1     1    8.6247E+00  1.3546E-01   8.4893E+00  0.000E+00  0.000E+00  0.000E+00  1.09390E+03  8.549E-01  7.809E+00  3.514E-02  1.285E+00
   1    2    2     1     2    8.4893E+00  2.0809E-01   8.2812E+00  0.000E+00  0.000E+00  0.000E+00  1.08891E+03  8.492E-01  7.723E+00  5.406E-02  1.283E+00
   1    3    3     1     3    8.2812E+00  1.7583E-01   8.1054E+00  0.000E+00  0.000E+00  0.000E+00  1.08326E+03  8.427E-01  7.626E+00  4.576E-02  1.281E+00
   1    3    4     1     4    8.1054E+00  1.6058E-01   7.9448E+00  0.000E+00  0.000E+00  0.000E+00  1.07824E+03  8.369E-01  7.541E+00  4.185E-02  1.279E+00
   1    4    5     2     1    5.9448E+00  2.7323E-01   5.6716E+00  0.000E+00  0.000E+00  0.000E+00  1.07244E+03  5.030E-01  1.200E+01  7.800E-02  1.168E+00
   1    5    6     2     2    5.6716E+00  2.0942E-01   5.4621E+00  0.000E+00  0.000E+00  0.000E+00  1.06700E+03  4.904E-01  1.200E+01  6.000E-02  1.163E+00
   1    6    6     2     3    5.4621E+00  2.0875E-01   5.2534E+00  0.000E+00  0.000E+00  0.000E+00  1.06227E+03  4.792E-01  1.200E+01  6.000E-02  1.160E+00
   1    7    6     2     4    5.2534E+00  2.0808E-01   5.0453E+00  0.000E+00  0.000E+00  0.000E+00  1.05754E+03  4.679E-01  1.200E+01  6.000E-02  1.156E+00
   1    8    6     2     5    5.0453E+00  2.0739E-01   4.8379E+00  0.000E+00  0.000E+00  0.000E+00  1.05282E+03  4.565E-01  1.200E+01  6.000E-02  1.152E+00
   1    3    5     3     1    2.0000E+00  2.8252E-01   1.7175E+00  0.000E+00  0.000E+00  0.000E+00  1.07555E+03  1.909E+00  9.636E+00  7.227E-02  1.955E+00
   1    3    6     3     2    1.7175E+00  2.4905E-01   1.4684E+00  0.000E+00  0.000E+00  0.000E+00  1.07264E+03  1.727E+00  8.909E+00  6.682E-02  1.864E+00
   1    3    7     3     3    1.4684E+00  1.9718E-01   1.2712E+00  0.000E+00  0.000E+00  0.000E+00  1.06987E+03  1.555E+00  8.218E+00  5.547E-02  1.777E+00
   1    4    8     3     4    1.2712E+00  2.2567E-01   1.0456E+00  0.000E+00  0.000E+00  0.000E+00  1.06682E+03  1.364E+00  7.455E+00  6.709E-02  1.682E+00
   1    5    8     3     5    1.0456E+00  1.5790E-01   8.8768E-01  0.000E+00  0.000E+00  0.000E+00  1.06362E+03  1.164E+00  6.655E+00  4.991E-02  1.582E+00
   1    6    8     3     6    8.8768E-01  5.5980E-02   8.3170E-01  0.000E+00  0.000E+00  0.000E+00  1.06158E+03  1.036E+00  6.145E+00  1.844E-02  1.518E+00
   1    5   10     4     1    1.0000E+01  9.0919E-02   9.9091E+00  0.000E+00  0.000E+00  0.000E+00  1.07836E+03  6.368E-01  1.000E+01  2.500E-02  1.212E+00
   1    5    9     4     2    9.9091E+00  1.8158E-01   9.7275E+00  0.000E+00  0.000E+00  0.000E+00  1.07154E+03  6.315E-01  1.000E+01  5.000E-02  1.211E+00
   1    6    8     4     3    9.7275E+00  1.2689E-01   9.6006E+00  0.000E+00  0.000E+00  0.000E+00  1.06381E+03  6.256E-01  1.000E+01  3.500E-02  1.209E+00
   1    6    8     5     1    1.0432E+01  2.2686E-01   1.0205E+01  0.000E+00  0.000E+00  0.000E+00  1.05868E+03  6.790E-01  1.542E+01  6.166E-02  1.226E+00
   1    7    7     5     2    1.0205E+01  2.7894E-01   9.9265E+00  0.000E+00  0.000E+00  0.000E+00  1.05417E+03  6.732E-01  1.519E+01  7.594E-02  1.224E+00
   1    8    7     5     3    9.9265E+00  1.9221E-01   9.7343E+00  0.000E+00  0.000E+00  0.000E+00  1.04992E+03  6.676E-01  1.497E+01  5.241E-02  1.223E+00
   1    8    6     5     4    9.7343E+00  1.3577E-01   9.5985E+00  0.000E+00  0.000E+00  0.000E+00  1.04691E+03  6.637E-01  1.482E+01  3.706E-02  1.221E+00
   1    9    6     6     1    1.4436E+01  2.3244E-01   1.4204E+01  0.000E+00  0.000E+00  0.000E+00  1.04360E+03  8.741E-01  1.200E+01  6.000E-02  1.291E+00
   1   10    7     6     2    1.4204E+01  2.3193E-01   1.3972E+01  0.000E+00  0.000E+00  0.000E+00  1.03905E+03  8.655E-01  1.200E+01  6.000E-02  1.289E+00
   1   11    7     6     3    1.3972E+01  2.3142E-01   1.3741E+01  0.000E+00  0.000E+00  0.000E+00  1.03449E+03  8.570E-01  1.200E+01  6.000E-02  1.286E+00
   1   12    7     6     4    1.3741E+01  2.3090E-01   1.3510E+01  0.000E+00  0.000E+00  0.000E+00  1.02994E+03  8.484E-01  1.200E+01  6.000E-02  1.283E+00
   1   13    7     6     5    1.3510E+01  7.4317E-03   1.3502E+01  0.000E+00  0.000E+00  0.000E+00  1.02675E+03  8.439E-01  1.200E+01  2.400E-02  1.032E-01
   1   14    9     7     1    1.5000E+02  1.3982E+00   1.4860E+02  0.000E+00  0.000E+00  0.000E+00  1.03987E+03  2.288E+00  5.529E+01  5.593E-01  8.333E-01
   1   13    8     7     2    1.4860E+02  2.0352E+00   1.4657E+02  0.000E+00  0.000E+00  0.000E+00  1.03478E+03  2.278E+00  5.525E+01  6.147E-01  1.104E+00
   1   13    7     7     3    1.4657E+02  1.8113E+00   1.4476E+02  0.000E+00  0.000E+00  0.000E+00  1.02969E+03  2.268E+00  5.521E+01  5.583E-01  1.081E+00
   1   13    6     8     1    1.5826E+02  1.1902E+00   1.5707E+02  0.000E+00  0.000E+00  0.000E+00  1.02474E+03  2.870E+00  4.161E+01  4.241E-01  9.356E-01
   1   13    5     8     2    1.5707E+02  4.3807E-01   1.5663E+02  0.000E+00  0.000E+00  0.000E+00  1.01849E+03  2.864E+00  4.153E+01  4.232E-01  3.450E-01
   1   13    4     8     3    1.5663E+02 -1.5165E+00   1.5815E+02  0.000E+00  0.000E+00  0.000E+00  1.01224E+03  2.868E+00  4.159E+01  4.238E+00 -1.193E-01
   1   13    3     8     4    1.5815E+02 -3.2055E+00   1.6135E+02  0.000E+00  0.000E+00  0.000E+00  1.00601E+03  2.884E+00  4.182E+01  4.262E+00 -2.507E-01
   1   13    2     8     5    1.6135E+02 -2.4764E+00   1.6383E+02  0.000E+00  0.000E+00  0.000E+00  9.99778E+02  2.903E+00  4.210E+01  4.290E+00 -1.924E-01
   1   13    1     8     6    1.6383E+02 -1.9617E+00   1.6579E+02  0.000E+00  0.000E+00  0.000E+00  9.94793E+02  2.918E+00  4.231E+01  2.587E+00 -2.528E-01
   1    8    6     9     1    0.0000E+00  0.0000E+00   0.0000E+00  0.000E+00  0.000E+00  0.000E+00  1.07875E+03  0.000E+00  4.000E+00  0.000E+00  1.000E+00
   1    8    5     9     2    0.0000E+00  0.0000E+00   0.0000E+00  0.000E+00  0.000E+00  0.000E+00  1.07825E+03  0.000E+00  4.000E+00  0.000E+00  1.000E+00





UNSATURATED ZONE PACKAGE VOLUMETRIC BUDGET FOR  TIME STEP    30 STRESS PERIOD   37
  ------------------------------------------------------------------------------



     CUMULATIVE VOLUMES      L**3       RATES FOR THIS TIME STEP      L**3/T
     ------------------                 ------------------------

           IN:                                      IN:
           ---                                      ---
        INFILTRATION =  1284092320.4495          INFILTRATION =           0.8475

          OUT:                                     OUT:
          ----                                     ----
              UZF ET =  1282772551.3474                UZF ET =           0.7500
        UZF RECHARGE =       73224.0000          UZF RECHARGE =       0.0000E+00

            IN - OUT =     1246545.1021              IN - OUT =       9.7500E-02

          STORAGE:                                 STORAGE:
          --------                                 --------
      STORAGE CHANGE =     1246545.1842        STORAGE CHANGE =       9.7500E-02

 PERCENT DISCREPANCY IS DIFFERENCE BETWEEN IN-OUT MINUS CHANGE IN STORAGE
 DIVIDED BY THE AVERAGE OF IN AND OUT TIMES 100

 PERCENT DISCREPANCY =           0.00     PERCENT DISCREPANCY =           0.00






1
  VOLUMETRIC BUDGET FOR AGRICULTURAL FIELDS AT  END OF TIME STEP   30, STRESS PERIOD  37
  ------------------------------------------------------------------------------

     CUMULATIVE VOLUMES      L**3       RATES FOR THIS TIME STEP      L**3/T
     ------------------                 ------------------------

           IN:                                      IN:
           ---                                      ---
               AG WELLS  =  1203775104.0000                 AG WELLS  =           0.0000
      DIVERSION SEGMENTS =           0.0000        DIVERSION SEGMENTS =           0.0000
       IRRIGATION PONDS  =           0.0000         IRRIGATION PONDS  =           0.0000
           GW IRRIGATION =           0.0000             GW IRRIGATION =           0.0000
           SW IRRIGATION =           0.0000             SW IRRIGATION =           0.0000
        SYSTEM LOSSES GW =           0.0000          SYSTEM LOSSES GW =           0.0000
        SYSTEM LOSSES SW =           0.0000          SYSTEM LOSSES SW =           0.0000

                TOTAL IN =  1203775104.0000                  TOTAL IN =           0.0000

          OUT:                                     OUT:
          ----                                     ----
               AG WELLS  =           0.0000                 AG WELLS  =           0.0000
      DIVERSION SEGMENTS =           0.0000        DIVERSION SEGMENTS =           0.0000
       IRRIGATION PONDS  =           0.0000         IRRIGATION PONDS  =           0.0000
           GW IRRIGATION =  1203775104.0000             GW IRRIGATION =           0.0000
           SW IRRIGATION =           0.0000             SW IRRIGATION =           0.0000
        SYSTEM LOSSES GW =           0.0000          SYSTEM LOSSES GW =           0.0000
        SYSTEM LOSSES SW =           0.0000          SYSTEM LOSSES SW =           0.0000

               TOTAL OUT =  1203775104.0000                 TOTAL OUT =           0.0000

                IN - OUT =           0.0000                  IN - OUT =           0.0000

     PERCENT DISCREPANCY =           0.00         PERCENT DISCREPANCY =           0.00



1
  VOLUMETRIC BUDGET FOR ENTIRE MODEL AT END OF TIME STEP   30, STRESS PERIOD  37
  ------------------------------------------------------------------------------

     CUMULATIVE VOLUMES      L**3       RATES FOR THIS TIME STEP      L**3/T
     ------------------                 ------------------------

           IN:                                      IN:
           ---                                      ---
             STORAGE     =  1604424320.0000               STORAGE     =           7.3416
       CONSTANT HEAD     =           0.0000         CONSTANT HEAD     =           0.0000
     HEAD DEP BOUNDS     =    27340768.0000       HEAD DEP BOUNDS     =           0.2900
      STREAM LEAKAGE     =  1141281408.0000        STREAM LEAKAGE     =          11.9955
        UZF RECHARGE     =       73223.9531          UZF RECHARGE     =           0.0000
               GW ET     =           0.0000                 GW ET     =           0.0000
     SURFACE LEAKAGE     =           0.0000       SURFACE LEAKAGE     =           0.0000
           AG WELLS      =           0.0000             AG WELLS      =           0.0000

                TOTAL IN =  2773119744.0000                  TOTAL IN =          19.6272

          OUT:                                     OUT:
          ----                                     ----
             STORAGE     =   613577472.0000               STORAGE     =          10.1802
       CONSTANT HEAD     =           0.0000         CONSTANT HEAD     =           0.0000
     HEAD DEP BOUNDS     =    27370990.0000       HEAD DEP BOUNDS     =           0.2870
      STREAM LEAKAGE     =   928401792.0000        STREAM LEAKAGE     =           9.1600
        UZF RECHARGE     =           0.0000          UZF RECHARGE     =           0.0000
               GW ET     =           0.0000                 GW ET     =           0.0000
     SURFACE LEAKAGE     =           0.0000       SURFACE LEAKAGE     =           0.0000
           AG WELLS      =  1203775104.0000             AG WELLS      =           0.0000

               TOTAL OUT =  2773125376.0000                 TOTAL OUT =          19.6272

                IN - OUT =       -5632.0000                  IN - OUT =       2.2888E-05

     PERCENT DISCREPANCY =          -0.00         PERCENT DISCREPANCY =           0.00






         TIME SUMMARY AT END OF TIME STEP   30 IN STRESS PERIOD   37
                    SECONDS     MINUTES      HOURS       DAYS        YEARS
                    -----------------------------------------------------------
   TIME STEP LENGTH  87667.      1461.1      24.352      1.0147     2.77799E-03
 STRESS PERIOD TIME 2.63000E+06  43833.      730.56      30.440     8.33397E-02
         TOTAL TIME 9.47660E+07 1.57943E+06  26324.      1096.8      3.0030    
1
1
                            STRESS PERIOD NO.   38, LENGTH =   2630000.    
                            -----------------------------------------------

                              NUMBER OF TIME STEPS =    30

                               MULTIPLIER FOR DELT =     1.000

                            INITIAL TIME STEP SIZE =   87666.66    

 REUSING NON-PARAMETER GHB CELLS FROM LAST STRESS PERIOD

      2 GHB CELLS

 REUSING STREAM SEGMENT DATA FROM LAST STRESS PERIOD



            AREAL INFILTRATION RATE
 READING ON UNIT   19 WITH FORMAT: (FREE)              

            1           2           3           4           5           6           7           8           9          10
 ........................................................................................................................
   1   1.0000E-10  2.0000E-10   0.000       0.000       0.000       0.000       0.000       0.000       0.000       0.000    
   2   2.0000E-10  1.0000E-10  2.0000E-10   0.000       0.000      8.0000E-10  8.0000E-10  5.0000E-10   0.000       0.000    
   3    0.000      5.0000E-10  1.0000E-10  1.0000E-10  8.0000E-10  8.0000E-10  5.0000E-10  5.0000E-10   0.000       0.000    
   4   8.0000E-10  5.0000E-10  1.0000E-10  1.0000E-10  1.0000E-10  1.0000E-10  1.0000E-10  1.0000E-10  2.0000E-10   0.000    
   5   8.0000E-10  5.0000E-10  1.0000E-10  1.0000E-10  1.0000E-10  1.0000E-10  1.0000E-10  1.0000E-10  1.0000E-10  1.0000E-10
   6   8.0000E-10  5.0000E-10  5.0000E-10  2.0000E-10  2.0000E-10  1.0000E-10  1.0000E-10  1.0000E-10  1.0000E-10  5.0000E-10
   7   8.0000E-10  5.0000E-10  5.0000E-10  2.0000E-10  2.0000E-10  1.0000E-10  1.0000E-10  2.0000E-10  2.0000E-10   0.000    
   8    0.000      5.0000E-10  5.0000E-10  2.0000E-10  2.0000E-10  1.0000E-10  1.0000E-10  2.0000E-10  5.0000E-10   0.000    
   9    0.000      5.0000E-10  5.0000E-10  2.0000E-10  2.0000E-10  1.0000E-10  1.0000E-10  2.0000E-10  5.0000E-10   0.000    
  10    0.000      5.0000E-10  5.0000E-10  2.0000E-10  2.0000E-10  1.0000E-10  1.0000E-10  2.0000E-10  5.0000E-10  8.0000E-10
  11    0.000      1.0000E-10  1.0000E-10  1.0000E-10  1.0000E-10  1.0000E-10  1.0000E-10  2.0000E-10  5.0000E-10   0.000    
  12   1.0000E-10  1.0000E-10  1.0000E-10  1.0000E-10  1.0000E-10  1.0000E-10  1.0000E-10  1.0000E-10  2.0000E-10   0.000    
  13   1.0000E-10  1.0000E-10  2.0000E-10  2.0000E-10  2.0000E-10  2.0000E-10  2.0000E-10  1.0000E-10  1.0000E-10   0.000    
  14    0.000      2.0000E-10  5.0000E-10  5.0000E-10  5.0000E-10  5.0000E-10  5.0000E-10  2.0000E-10  1.0000E-10   0.000    
  15    0.000       0.000      8.0000E-10  8.0000E-10  8.0000E-10  8.0000E-10   0.000       0.000       0.000       0.000    

                  ET RATE =  5.000000E-10

 USING ET EXTINCTION DEPTH FROM PREVIOUS STRESS PERIOD. CURRENT PERIOD IS:      38

 USING EXTINCTION WATER CONTENT FROM PREVIOUS STRESS PERIOD. CURRENT PERIOD IS:      38

 USING AIR ENTRY PRESSURE FROM PREVIOUS STRESS PERIOD. CURRENT PERIOD IS:      38

 USING ROOT PRESSURE HEAD FROM PREVIOUS STRESS PERIOD. CURRENT PERIOD IS:      38

 USING ROOT ACTIVITY FROM PREVIOUS STRESS PERIOD. CURRENT PERIOD IS:      38

 PROCESSING AG STRESS PERIOD DATA

 READING AG STRESS PERIOD DATA

 READING IRRIGATION SEGMENT

 READING IRRIGATION WELL

 READING SUPPLEMENTAL WELL

 NO IRRPOND OR REUSING IRRPOND DATA FROM LAST STRESS PERIOD

 END PROCESSING AG STRESS PERIOD DATA OPTIONS
 
 SOLVING FOR HEAD 
                                                   Max.-Head-Change                         Max.-Flux-Residual
  Residual-Control   Outer-Iter.   Inner-Iter.     Column Row Layer    Maximum-Head-Change  Column Row Layer    Maximum-Flux-Residual          L2-NORM 
          0                 1           2             4    7     1       0.2499078580E-01       4    7    1         0.1312613373E+01      0.3002924815E+01
          0                 2           2             4    7     1      -0.2430935097E-02       4    7    1        -0.1312622222E+00      0.3002914018E+00
          0                 3           2             4    7     1       0.1655375398E-03       4    7    1         0.9188351142E-02      0.2102024719E-01
          0                 4           1             4    7     1      -0.6586894410E-05       4    7    1        -0.3758041207E-03      0.8597288264E-03

    ------------------------------------------------
       NWT REQUIRED            4 OUTER ITERATIONS 
       AND A TOTAL OF          7 INNER ITERATIONS.
    ------------------------------------------------

 NO OUTPUT CONTROL FOR STRESS PERIOD   38   TIME STEP    1
 
 SOLVING FOR HEAD 
                                                   Max.-Head-Change                         Max.-Flux-Residual
  Residual-Control   Outer-Iter.   Inner-Iter.     Column Row Layer    Maximum-Head-Change  Column Row Layer    Maximum-Flux-Residual          L2-NORM 
          0                 1           2             4    7     1       0.2472269213E-01       4    7    1         0.1298457428E+01      0.2979813447E+01
          0                 2           2             4    7     1      -0.2404857153E-02       4    7    1        -0.1298466072E+00      0.2980144794E+00
          0                 3           2             4    7     1       0.1637617318E-03       4    7    1         0.9089258255E-02      0.2086063446E-01
          0                 4           1             4    7     1      -0.6516233463E-05       4    7    1        -0.3717512209E-03      0.8531585626E-03

    ------------------------------------------------
       NWT REQUIRED            4 OUTER ITERATIONS 
       AND A TOTAL OF          7 INNER ITERATIONS.
    ------------------------------------------------

 NO OUTPUT CONTROL FOR STRESS PERIOD   38   TIME STEP    2
 
 SOLVING FOR HEAD 
                                                   Max.-Head-Change                         Max.-Flux-Residual
  Residual-Control   Outer-Iter.   Inner-Iter.     Column Row Layer    Maximum-Head-Change  Column Row Layer    Maximum-Flux-Residual          L2-NORM 
          0                 1           2             4    7     1       0.2445886734E-01       4    7    1         0.1284528020E+01      0.2957564280E+01
          0                 2           2             4    7     1      -0.2379193336E-02       4    7    1        -0.1284536463E+00      0.2957486075E+00
          0                 3           2             4    7     1       0.1620141237E-03       4    7    1         0.8991751142E-02      0.2070166451E-01
          0                 4           1             4    7     1      -0.6446694205E-05       4    7    1        -0.3677631687E-03      0.8466549468E-03

    ------------------------------------------------
       NWT REQUIRED            4 OUTER ITERATIONS 
       AND A TOTAL OF          7 INNER ITERATIONS.
    ------------------------------------------------

 NO OUTPUT CONTROL FOR STRESS PERIOD   38   TIME STEP    3
 
 SOLVING FOR HEAD 
                                                   Max.-Head-Change                         Max.-Flux-Residual
  Residual-Control   Outer-Iter.   Inner-Iter.     Column Row Layer    Maximum-Head-Change  Column Row Layer    Maximum-Flux-Residual          L2-NORM 
          0                 1           2             4    7     1       0.2419935408E-01       4    7    1         0.1270827273E+01      0.2933085482E+01
          0                 2           2             4    7     1      -0.2353949485E-02       4    7    1        -0.1270835522E+00      0.2933014015E+00
          0                 3           2             4    7     1       0.1602951140E-03       4    7    1         0.8895844693E-02      0.2053040311E-01
          0                 4           1             4    7     1      -0.6378293444E-05       4    7    1        -0.3638406042E-03      0.8396509961E-03

    ------------------------------------------------
       NWT REQUIRED            4 OUTER ITERATIONS 
       AND A TOTAL OF          7 INNER ITERATIONS.
    ------------------------------------------------

 NO OUTPUT CONTROL FOR STRESS PERIOD   38   TIME STEP    4
 
 SOLVING FOR HEAD 
                                                   Max.-Head-Change                         Max.-Flux-Residual
  Residual-Control   Outer-Iter.   Inner-Iter.     Column Row Layer    Maximum-Head-Change  Column Row Layer    Maximum-Flux-Residual          L2-NORM 
          0                 1           2             4    7     1       0.2394379304E-01       4    7    1         0.1257335506E+01      0.2908974944E+01
          0                 2           2             4    7     1      -0.2329090085E-02       4    7    1        -0.1257343565E+00      0.2908909863E+00
          0                 3           2             4    7     1       0.1586022841E-03       4    7    1         0.8801401153E-02      0.2036174339E-01
          0                 4           1             4    7     1      -0.6310933897E-05       4    7    1        -0.3599778513E-03      0.8327480479E-03

    ------------------------------------------------
       NWT REQUIRED            4 OUTER ITERATIONS 
       AND A TOTAL OF          7 INNER ITERATIONS.
    ------------------------------------------------

 NO OUTPUT CONTROL FOR STRESS PERIOD   38   TIME STEP    5
 
 SOLVING FOR HEAD 
                                                   Max.-Head-Change                         Max.-Flux-Residual
  Residual-Control   Outer-Iter.   Inner-Iter.     Column Row Layer    Maximum-Head-Change  Column Row Layer    Maximum-Flux-Residual          L2-NORM 
          0                 1           2             4    7     1       0.2369237116E-01       4    7    1         0.1244063190E+01      0.2885227231E+01
          0                 2           2             4    7     1      -0.2304633318E-02       4    7    1        -0.1244071064E+00      0.2885167173E+00
          0                 3           2             4    7     1       0.1569368709E-03       4    7    1         0.8708493755E-02      0.2019552140E-01
          0                 4           1             4    7     1      -0.6244665414E-05       4    7    1        -0.3561779181E-03      0.8259318842E-03

    ------------------------------------------------
       NWT REQUIRED            4 OUTER ITERATIONS 
       AND A TOTAL OF          7 INNER ITERATIONS.
    ------------------------------------------------

 NO OUTPUT CONTROL FOR STRESS PERIOD   38   TIME STEP    6
 
 SOLVING FOR HEAD 
                                                   Max.-Head-Change                         Max.-Flux-Residual
  Residual-Control   Outer-Iter.   Inner-Iter.     Column Row Layer    Maximum-Head-Change  Column Row Layer    Maximum-Flux-Residual          L2-NORM 
          0                 1           2             4    7     1       0.2344486395E-01       4    7    1         0.1230998214E+01      0.2861831009E+01
          0                 2           2             4    7     1      -0.2280557350E-02       4    7    1        -0.1231005908E+00      0.2861776058E+00
          0                 3           2             4    7     1       0.1552973894E-03       4    7    1         0.8617037781E-02      0.2003189525E-01
          0                 4           1             4    7     1      -0.6179429165E-05       4    7    1        -0.3524373733E-03      0.8192703479E-03

    ------------------------------------------------
       NWT REQUIRED            4 OUTER ITERATIONS 
       AND A TOTAL OF          7 INNER ITERATIONS.
    ------------------------------------------------

 NO OUTPUT CONTROL FOR STRESS PERIOD   38   TIME STEP    7
 
 SOLVING FOR HEAD 
                                                   Max.-Head-Change                         Max.-Flux-Residual
  Residual-Control   Outer-Iter.   Inner-Iter.     Column Row Layer    Maximum-Head-Change  Column Row Layer    Maximum-Flux-Residual          L2-NORM 
          0                 1           2             4    7     1       0.2320119404E-01       4    7    1         0.1218136205E+01      0.2838777967E+01
          0                 2           2             4    7     1      -0.2256854654E-02       4    7    1        -0.1218143724E+00      0.2838727244E+00
          0                 3           2             4    7     1       0.1536833263E-03       4    7    1         0.8527002633E-02      0.1987055316E-01
          0                 4           1             4    7     1      -0.6115204082E-05       4    7    1        -0.3487549309E-03      0.8126405386E-03

    ------------------------------------------------
       NWT REQUIRED            4 OUTER ITERATIONS 
       AND A TOTAL OF          7 INNER ITERATIONS.
    ------------------------------------------------

 NO OUTPUT CONTROL FOR STRESS PERIOD   38   TIME STEP    8
 
 SOLVING FOR HEAD 
                                                   Max.-Head-Change                         Max.-Flux-Residual
  Residual-Control   Outer-Iter.   Inner-Iter.     Column Row Layer    Maximum-Head-Change  Column Row Layer    Maximum-Flux-Residual          L2-NORM 
          0                 1           2             4    7     1       0.2296128185E-01       4    7    1         0.1205473154E+01      0.2816067203E+01
          0                 2           2             4    7     1      -0.2233517488E-02       4    7    1        -0.1205480502E+00      0.2816020452E+00
          0                 3           2             4    7     1       0.1520941540E-03       4    7    1         0.8438360200E-02      0.1971164772E-01
          0                 4           1             4    7     1      -0.6051969211E-05       4    7    1        -0.3451294317E-03      0.8061675549E-03

    ------------------------------------------------
       NWT REQUIRED            4 OUTER ITERATIONS 
       AND A TOTAL OF          7 INNER ITERATIONS.
    ------------------------------------------------

 NO OUTPUT CONTROL FOR STRESS PERIOD   38   TIME STEP    9
 
 SOLVING FOR HEAD 
                                                   Max.-Head-Change                         Max.-Flux-Residual
  Residual-Control   Outer-Iter.   Inner-Iter.     Column Row Layer    Maximum-Head-Change  Column Row Layer    Maximum-Flux-Residual          L2-NORM 
          0                 1           2             4    7     1       0.2272517953E-01       4    7    1         0.1193012203E+01      0.2793679640E+01
          0                 2           2             4    7     1      -0.2210550925E-02       4    7    1        -0.1193019385E+00      0.2793636268E+00
          0                 3           2             4    7     1       0.1505302188E-03       4    7    1         0.8351132509E-02      0.1955501957E-01
          0                 4           1             4    7     1      -0.5989738599E-05       4    7    1        -0.3415618153E-03      0.7997711249E-03

    ------------------------------------------------
       NWT REQUIRED            4 OUTER ITERATIONS 
       AND A TOTAL OF          7 INNER ITERATIONS.
    ------------------------------------------------

 NO OUTPUT CONTROL FOR STRESS PERIOD   38   TIME STEP   10
 
 SOLVING FOR HEAD 
                                                   Max.-Head-Change                         Max.-Flux-Residual
  Residual-Control   Outer-Iter.   Inner-Iter.     Column Row Layer    Maximum-Head-Change  Column Row Layer    Maximum-Flux-Residual          L2-NORM 
          0                 1           2             4    7     1       0.2249280741E-01       4    7    1         0.1180748787E+01      0.2771615314E+01
          0                 2           2             4    7     1      -0.2187947216E-02       4    7    1        -0.1180755807E+00      0.2771574915E+00
          0                 3           2             4    7     1       0.1489909923E-03       4    7    1         0.8265287573E-02      0.1940063606E-01
          0                 4           1             4    7     1      -0.5928491751E-05       4    7    1        -0.3380507619E-03      0.7934756313E-03

    ------------------------------------------------
       NWT REQUIRED            4 OUTER ITERATIONS 
       AND A TOTAL OF          7 INNER ITERATIONS.
    ------------------------------------------------

 NO OUTPUT CONTROL FOR STRESS PERIOD   38   TIME STEP   11
 
 SOLVING FOR HEAD 
                                                   Max.-Head-Change                         Max.-Flux-Residual
  Residual-Control   Outer-Iter.   Inner-Iter.     Column Row Layer    Maximum-Head-Change  Column Row Layer    Maximum-Flux-Residual          L2-NORM 
          0                 1           2             4    7     1       0.2226395368E-01       4    7    1         0.1168671505E+01      0.2749870067E+01
          0                 2           2             4    7     1      -0.2165685738E-02       4    7    1        -0.1168678368E+00      0.2749722712E+00
          0                 3           2             4    7     1       0.1474750705E-03       4    7    1         0.8180745614E-02      0.1924764908E-01
          0                 4           1             4    7     1      -0.5868171566E-05       4    7    1        -0.3345929858E-03      0.7871964904E-03

    ------------------------------------------------
       NWT REQUIRED            4 OUTER ITERATIONS 
       AND A TOTAL OF          7 INNER ITERATIONS.
    ------------------------------------------------

 NO OUTPUT CONTROL FOR STRESS PERIOD   38   TIME STEP   12
 
 SOLVING FOR HEAD 
                                                   Max.-Head-Change                         Max.-Flux-Residual
  Residual-Control   Outer-Iter.   Inner-Iter.     Column Row Layer    Maximum-Head-Change  Column Row Layer    Maximum-Flux-Residual          L2-NORM 
          0                 1           2             4    7     1       0.2203867769E-01       4    7    1         0.1156783917E+01      0.2728438719E+01
          0                 2           2             4    7     1      -0.2143771868E-02       4    7    1        -0.1156790626E+00      0.2728492677E+00
          0                 3           2             4    7     1       0.1459823820E-03       4    7    1         0.8097531526E-02      0.1909791649E-01
          0                 4           1             4    7     1      -0.5808776201E-05       4    7    1        -0.3311895350E-03      0.7810980870E-03

    ------------------------------------------------
       NWT REQUIRED            4 OUTER ITERATIONS 
       AND A TOTAL OF          7 INNER ITERATIONS.
    ------------------------------------------------

 NO OUTPUT CONTROL FOR STRESS PERIOD   38   TIME STEP   13
 
 SOLVING FOR HEAD 
                                                   Max.-Head-Change                         Max.-Flux-Residual
  Residual-Control   Outer-Iter.   Inner-Iter.     Column Row Layer    Maximum-Head-Change  Column Row Layer    Maximum-Flux-Residual          L2-NORM 
          0                 1           2             4    7     1       0.2181677227E-01       4    7    1         0.1145074555E+01      0.2707323485E+01
          0                 2           2             4    7     1      -0.2122266402E-02       4    7    1        -0.1145081114E+00      0.2708302934E+00
          0                 3           2             4    7     1       0.1445183796E-03       4    7    1         0.8015565091E-02      0.1895778201E-01
          0                 4           1             4    7     1      -0.5750522211E-05       4    7    1        -0.3278371059E-03      0.7753830785E-03

    ------------------------------------------------
       NWT REQUIRED            4 OUTER ITERATIONS 
       AND A TOTAL OF          7 INNER ITERATIONS.
    ------------------------------------------------

 NO OUTPUT CONTROL FOR STRESS PERIOD   38   TIME STEP   14
 
 SOLVING FOR HEAD 
                                                   Max.-Head-Change                         Max.-Flux-Residual
  Residual-Control   Outer-Iter.   Inner-Iter.     Column Row Layer    Maximum-Head-Change  Column Row Layer    Maximum-Flux-Residual          L2-NORM 
          0                 1           2             4    7     1       0.2159806450E-01       4    7    1         0.1133542978E+01      0.2686408821E+01
          0                 2           2             4    7     1      -0.2100912254E-02       4    7    1        -0.1133549395E+00      0.2686377854E+00
          0                 3           2             4    7     1       0.1430642428E-03       4    7    1         0.7934843121E-02      0.1880431368E-01
          0                 4           1             4    7     1      -0.5692660806E-05       4    7    1        -0.3245355697E-03      0.7690763316E-03

    ------------------------------------------------
       NWT REQUIRED            4 OUTER ITERATIONS 
       AND A TOTAL OF          7 INNER ITERATIONS.
    ------------------------------------------------

 NO OUTPUT CONTROL FOR STRESS PERIOD   38   TIME STEP   15
 
 SOLVING FOR HEAD 
                                                   Max.-Head-Change                         Max.-Flux-Residual
  Residual-Control   Outer-Iter.   Inner-Iter.     Column Row Layer    Maximum-Head-Change  Column Row Layer    Maximum-Flux-Residual          L2-NORM 
          0                 1           2             4    7     1       0.2138260262E-01       4    7    1         0.1122178411E+01      0.2665787018E+01
          0                 2           2             4    7     1      -0.2079953480E-02       4    7    1        -0.1122184688E+00      0.2665757938E+00
          0                 3           2             4    7     1       0.1416370299E-03       4    7    1         0.7855290277E-02      0.1866035656E-01
          0                 4           1             4    7     1      -0.5635870318E-05       4    7    1        -0.3212818349E-03      0.7631934204E-03

    ------------------------------------------------
       NWT REQUIRED            4 OUTER ITERATIONS 
       AND A TOTAL OF          7 INNER ITERATIONS.
    ------------------------------------------------

 NO OUTPUT CONTROL FOR STRESS PERIOD   38   TIME STEP   16
 
 SOLVING FOR HEAD 
                                                   Max.-Head-Change                         Max.-Flux-Residual
  Residual-Control   Outer-Iter.   Inner-Iter.     Column Row Layer    Maximum-Head-Change  Column Row Layer    Maximum-Flux-Residual          L2-NORM 
          0                 1           2             4    7     1       0.2117051988E-01       4    7    1         0.1110992437E+01      0.2645459977E+01
          0                 2           2             4    7     1      -0.2059323410E-02       4    7    1        -0.1110998578E+00      0.2645436129E+00
          0                 3           2             4    7     1       0.1402322004E-03       4    7    1         0.7776987595E-02      0.1851777511E-01
          0                 4           1             4    7     1      -0.5579970687E-05       4    7    1        -0.3180792480E-03      0.7573578356E-03

    ------------------------------------------------
       NWT REQUIRED            4 OUTER ITERATIONS 
       AND A TOTAL OF          7 INNER ITERATIONS.
    ------------------------------------------------

 NO OUTPUT CONTROL FOR STRESS PERIOD   38   TIME STEP   17
 
 SOLVING FOR HEAD 
                                                   Max.-Head-Change                         Max.-Flux-Residual
  Residual-Control   Outer-Iter.   Inner-Iter.     Column Row Layer    Maximum-Head-Change  Column Row Layer    Maximum-Flux-Residual          L2-NORM 
          0                 1           2             4    7     1       0.2096147866E-01       4    7    1         0.1099967122E+01      0.2625414167E+01
          0                 2           2             4    7     1      -0.2038989201E-02       4    7    1        -0.1099973129E+00      0.2625388194E+00
          0                 3           2             4    7     1       0.1388475184E-03       4    7    1         0.7699809541E-02      0.1837743558E-01
          0                 4           1             4    7     1      -0.5524873265E-05       4    7    1        -0.3149226764E-03      0.7516238180E-03

    ------------------------------------------------
       NWT REQUIRED            4 OUTER ITERATIONS 
       AND A TOTAL OF          7 INNER ITERATIONS.
    ------------------------------------------------

 NO OUTPUT CONTROL FOR STRESS PERIOD   38   TIME STEP   18
 
 SOLVING FOR HEAD 
                                                   Max.-Head-Change                         Max.-Flux-Residual
  Residual-Control   Outer-Iter.   Inner-Iter.     Column Row Layer    Maximum-Head-Change  Column Row Layer    Maximum-Flux-Residual          L2-NORM 
          0                 1           2             4    7     1       0.2075555561E-01       4    7    1         0.1089106776E+01      0.2605643631E+01
          0                 2           2             4    7     1      -0.2018958311E-02       4    7    1        -0.1089112653E+00      0.2605618991E+00
          0                 3           2             4    7     1       0.1374834911E-03       4    7    1         0.7623786320E-02      0.1823908509E-01
          0                 4           1             4    7     1      -0.5470597164E-05       4    7    1        -0.3118133166E-03      0.7459528284E-03

    ------------------------------------------------
       NWT REQUIRED            4 OUTER ITERATIONS 
       AND A TOTAL OF          7 INNER ITERATIONS.
    ------------------------------------------------

 NO OUTPUT CONTROL FOR STRESS PERIOD   38   TIME STEP   19
 
 SOLVING FOR HEAD 
                                                   Max.-Head-Change                         Max.-Flux-Residual
  Residual-Control   Outer-Iter.   Inner-Iter.     Column Row Layer    Maximum-Head-Change  Column Row Layer    Maximum-Flux-Residual          L2-NORM 
          0                 1           2             4    7     1       0.2055282837E-01       4    7    1         0.1078415376E+01      0.2586152332E+01
          0                 2           2             4    7     1      -0.1999238290E-02       4    7    1        -0.1078421126E+00      0.2586128777E+00
          0                 3           2             4    7     1       0.1361406323E-03       4    7    1         0.7548945693E-02      0.1810265480E-01
          0                 4           1             4    7     1      -0.5417163682E-05       4    7    1        -0.3087523341E-03      0.7404030136E-03

    ------------------------------------------------
       NWT REQUIRED            4 OUTER ITERATIONS 
       AND A TOTAL OF          7 INNER ITERATIONS.
    ------------------------------------------------

 NO OUTPUT CONTROL FOR STRESS PERIOD   38   TIME STEP   20
 
 SOLVING FOR HEAD 
                                                   Max.-Head-Change                         Max.-Flux-Residual
  Residual-Control   Outer-Iter.   Inner-Iter.     Column Row Layer    Maximum-Head-Change  Column Row Layer    Maximum-Flux-Residual          L2-NORM 
          0                 1           2             4    7     1       0.2035296229E-01       4    7    1         0.1067875125E+01      0.2566922432E+01
          0                 2           2             4    7     1      -0.1979796587E-02       4    7    1        -0.1067880751E+00      0.2566899974E+00
          0                 3           2             4    7     1       0.1348167265E-03       4    7    1         0.7475163169E-02      0.1796805390E-01
          0                 4           1             4    7     1      -0.5364484170E-05       4    7    1        -0.3057346287E-03      0.7348712662E-03

    ------------------------------------------------
       NWT REQUIRED            4 OUTER ITERATIONS 
       AND A TOTAL OF          7 INNER ITERATIONS.
    ------------------------------------------------

 NO OUTPUT CONTROL FOR STRESS PERIOD   38   TIME STEP   21
 
 SOLVING FOR HEAD 
                                                   Max.-Head-Change                         Max.-Flux-Residual
  Residual-Control   Outer-Iter.   Inner-Iter.     Column Row Layer    Maximum-Head-Change  Column Row Layer    Maximum-Flux-Residual          L2-NORM 
          0                 1           2             4    7     1       0.2015604172E-01       4    7    1         0.1057490494E+01      0.2547957387E+01
          0                 2           2             4    7     1      -0.1960641406E-02       4    7    1        -0.1057495999E+00      0.2547935729E+00
          0                 3           2             4    7     1       0.1335123312E-03       4    7    1         0.7402469980E-02      0.1783529620E-01
          0                 4           1             4    7     1      -0.5312581194E-05       4    7    1        -0.3027614691E-03      0.7294577317E-03

    ------------------------------------------------
       NWT REQUIRED            4 OUTER ITERATIONS 
       AND A TOTAL OF          7 INNER ITERATIONS.
    ------------------------------------------------

 NO OUTPUT CONTROL FOR STRESS PERIOD   38   TIME STEP   22
 
 SOLVING FOR HEAD 
                                                   Max.-Head-Change                         Max.-Flux-Residual
  Residual-Control   Outer-Iter.   Inner-Iter.     Column Row Layer    Maximum-Head-Change  Column Row Layer    Maximum-Flux-Residual          L2-NORM 
          0                 1           2             4    7     1       0.1996200976E-01       4    7    1         0.1047258583E+01      0.2529249232E+01
          0                 2           2             4    7     1      -0.1941766746E-02       4    7    1        -0.1047263970E+00      0.2529096766E+00
          0                 3           2             4    7     1       0.1322270386E-03       4    7    1         0.7330845867E-02      0.1770347455E-01
          0                 4           1             4    7     1      -0.5261438060E-05       4    7    1        -0.2998320419E-03      0.7240591138E-03

    ------------------------------------------------
       NWT REQUIRED            4 OUTER ITERATIONS 
       AND A TOTAL OF          7 INNER ITERATIONS.
    ------------------------------------------------

 NO OUTPUT CONTROL FOR STRESS PERIOD   38   TIME STEP   23
 
 SOLVING FOR HEAD 
                                                   Max.-Head-Change                         Max.-Flux-Residual
  Residual-Control   Outer-Iter.   Inner-Iter.     Column Row Layer    Maximum-Head-Change  Column Row Layer    Maximum-Flux-Residual          L2-NORM 
          0                 1           2             4    7     1       0.1977081458E-01       4    7    1         0.1037176466E+01      0.2510801995E+01
          0                 2           2             4    7     1      -0.1923168991E-02       4    7    1        -0.1037181737E+00      0.2510782832E+00
          0                 3           2             4    7     1       0.1309606017E-03       4    7    1         0.7260270296E-02      0.1757528244E-01
          0                 4           1             4    7     1      -0.5211045558E-05       4    7    1        -0.2969454993E-03      0.7188094051E-03

    ------------------------------------------------
       NWT REQUIRED            4 OUTER ITERATIONS 
       AND A TOTAL OF          7 INNER ITERATIONS.
    ------------------------------------------------

 NO OUTPUT CONTROL FOR STRESS PERIOD   38   TIME STEP   24
 
 SOLVING FOR HEAD 
                                                   Max.-Head-Change                         Max.-Flux-Residual
  Residual-Control   Outer-Iter.   Inner-Iter.     Column Row Layer    Maximum-Head-Change  Column Row Layer    Maximum-Flux-Residual          L2-NORM 
          0                 1           2             4    7     1       0.1958253517E-01       4    7    1         0.1027248655E+01      0.2492640923E+01
          0                 2           2             4    7     1      -0.1904854371E-02       4    7    1        -0.1027253813E+00      0.2492622222E+00
          0                 3           2             4    7     1       0.1297134460E-03       4    7    1         0.7190774928E-02      0.1744818602E-01
          0                 4           1             4    7     1      -0.5161420151E-05       4    7    1        -0.2941031310E-03      0.7137958017E-03

    ------------------------------------------------
       NWT REQUIRED            4 OUTER ITERATIONS 
       AND A TOTAL OF          7 INNER ITERATIONS.
    ------------------------------------------------

 NO OUTPUT CONTROL FOR STRESS PERIOD   38   TIME STEP   25
 
 SOLVING FOR HEAD 
                                                   Max.-Head-Change                         Max.-Flux-Residual
  Residual-Control   Outer-Iter.   Inner-Iter.     Column Row Layer    Maximum-Head-Change  Column Row Layer    Maximum-Flux-Residual          L2-NORM 
          0                 1           2             4    7     1       0.1939697886E-01       4    7    1         0.1017464773E+01      0.2474720803E+01
          0                 2           2             4    7     1      -0.1886804639E-02       4    7    1        -0.1017469822E+00      0.2474702808E+00
          0                 3           2             4    7     1       0.1284843276E-03       4    7    1         0.7122287058E-02      0.1732274778E-01
          0                 4           1             4    7     1      -0.5112512105E-05       4    7    1        -0.2913019680E-03      0.7084978470E-03

    ------------------------------------------------
       NWT REQUIRED            4 OUTER ITERATIONS 
       AND A TOTAL OF          7 INNER ITERATIONS.
    ------------------------------------------------

 NO OUTPUT CONTROL FOR STRESS PERIOD   38   TIME STEP   26
 
 SOLVING FOR HEAD 
                                                   Max.-Head-Change                         Max.-Flux-Residual
  Residual-Control   Outer-Iter.   Inner-Iter.     Column Row Layer    Maximum-Head-Change  Column Row Layer    Maximum-Flux-Residual          L2-NORM 
          0                 1           2             4    7     1       0.1921396832E-01       4    7    1         0.1007814803E+01      0.2457042574E+01
          0                 2           2             4    7     1      -0.1869002544E-02       4    7    1        -0.1007819745E+00      0.2457025125E+00
          0                 3           2             4    7     1       0.1272720723E-03       4    7    1         0.7054736586E-02      0.1719898106E-01
          0                 4           1             4    7     1      -0.5064275137E-05       4    7    1        -0.2885391466E-03      0.7034363243E-03

    ------------------------------------------------
       NWT REQUIRED            4 OUTER ITERATIONS 
       AND A TOTAL OF          7 INNER ITERATIONS.
    ------------------------------------------------

 NO OUTPUT CONTROL FOR STRESS PERIOD   38   TIME STEP   27
 
 SOLVING FOR HEAD 
                                                   Max.-Head-Change                         Max.-Flux-Residual
  Residual-Control   Outer-Iter.   Inner-Iter.     Column Row Layer    Maximum-Head-Change  Column Row Layer    Maximum-Flux-Residual          L2-NORM 
          0                 1           2             4    7     1       0.1903385562E-01       4    7    1         0.9983186549E+00      0.2439597442E+01
          0                 2           2             4    7     1      -0.1854626882E-02       4    7    1        -0.1000340062E+00      0.2440165295E+00
          0                 3           2             4    7     1       0.1262931380E-03       4    7    1         0.7002378441E-02      0.1708097459E-01
          0                 4           1             4    7     1      -0.5025322634E-05       4    7    1        -0.2863976965E-03      0.6986088367E-03

    ------------------------------------------------
       NWT REQUIRED            4 OUTER ITERATIONS 
       AND A TOTAL OF          7 INNER ITERATIONS.
    ------------------------------------------------

 NO OUTPUT CONTROL FOR STRESS PERIOD   38   TIME STEP   28
 
 SOLVING FOR HEAD 
                                                   Max.-Head-Change                         Max.-Flux-Residual
  Residual-Control   Outer-Iter.   Inner-Iter.     Column Row Layer    Maximum-Head-Change  Column Row Layer    Maximum-Flux-Residual          L2-NORM 
          0                 1           2             4    7     1       0.1884893685E-01       4    7    1         0.9887833130E+00      0.2422326092E+01
          0                 2           2             4    7     1      -0.1833495167E-02       4    7    1        -0.9887884240E-01      0.2422309690E+00
          0                 3           2             4    7     1       0.1248541493E-03       4    7    1         0.6921517131E-02      0.1695596222E-01
          0                 4           1             4    7     1      -0.4968063692E-05       4    7    1        -0.2830904527E-03      0.6934786003E-03

    ------------------------------------------------
       NWT REQUIRED            4 OUTER ITERATIONS 
       AND A TOTAL OF          7 INNER ITERATIONS.
    ------------------------------------------------

 NO OUTPUT CONTROL FOR STRESS PERIOD   38   TIME STEP   29
 
 SOLVING FOR HEAD 
                                                   Max.-Head-Change                         Max.-Flux-Residual
  Residual-Control   Outer-Iter.   Inner-Iter.     Column Row Layer    Maximum-Head-Change  Column Row Layer    Maximum-Flux-Residual          L2-NORM 
          0                 1           2             4    7     1       0.1867023149E-01       4    7    1         0.9793485282E+00      0.2405265021E+01
          0                 2           2             4    7     1      -0.1816111815E-02       4    7    1        -0.9793535173E-01      0.2405141766E+00
          0                 3           2             4    7     1       0.1236704094E-03       4    7    1         0.6855472863E-02      0.1683582788E-01
          0                 4           1             4    7     1      -0.4920961767E-05       4    7    1        -0.2803892601E-03      0.6885880463E-03

    ------------------------------------------------
       NWT REQUIRED            4 OUTER ITERATIONS 
       AND A TOTAL OF          7 INNER ITERATIONS.
    ------------------------------------------------

 NO OUTPUT CONTROL FOR STRESS PERIOD   38   TIME STEP   30



 STREAM LISTING     PERIOD     38   STEP       30

 LAYER ROW COL. STREAM  RCH.  FLOW INTO     FLOW TO   FLOW OUT OF   OVRLND.     DIRECT     STREAM       STREAM     STREAM     STREAM   STREAMBED  STREAMBED
                SEG.NO.  NO.  STRM. RCH.    AQUIFER    STRM. RCH.    RUNOFF     PRECIP       ET          HEAD       DEPTH      WIDTH   CONDCTNC.   GRADIENT

   1    1    1     1     1    7.1248E+00  1.2038E-01   7.0044E+00  0.000E+00  0.000E+00  0.000E+00  1.09385E+03  8.024E-01  7.035E+00  3.166E-02  1.267E+00
   1    2    2     1     2    7.0044E+00  1.8491E-01   6.8195E+00  0.000E+00  0.000E+00  0.000E+00  1.08886E+03  7.976E-01  6.956E+00  4.869E-02  1.266E+00
   1    3    3     1     3    6.8195E+00  1.5635E-01   6.6631E+00  0.000E+00  0.000E+00  0.000E+00  1.08321E+03  7.928E-01  6.870E+00  4.122E-02  1.264E+00
   1    3    4     1     4    6.6631E+00  1.4286E-01   6.5203E+00  0.000E+00  0.000E+00  0.000E+00  1.07820E+03  7.886E-01  6.794E+00  3.771E-02  1.263E+00
   1    4    5     2     1    4.5203E+00  2.6715E-01   4.2531E+00  0.000E+00  0.000E+00  0.000E+00  1.07236E+03  4.250E-01  1.200E+01  7.800E-02  1.142E+00
   1    5    6     2     2    4.2531E+00  2.0467E-01   4.0485E+00  0.000E+00  0.000E+00  0.000E+00  1.06692E+03  4.112E-01  1.200E+01  6.000E-02  1.137E+00
   1    6    6     2     3    4.0485E+00  2.0393E-01   3.8445E+00  0.000E+00  0.000E+00  0.000E+00  1.06219E+03  3.989E-01  1.200E+01  6.000E-02  1.133E+00
   1    7    6     2     4    3.8445E+00  2.0319E-01   3.6413E+00  0.000E+00  0.000E+00  0.000E+00  1.05746E+03  3.864E-01  1.200E+01  6.000E-02  1.129E+00
   1    8    6     2     5    3.6413E+00  2.0242E-01   3.4389E+00  0.000E+00  0.000E+00  0.000E+00  1.05273E+03  3.737E-01  1.200E+01  6.000E-02  1.125E+00
   1    3    5     3     1    2.0000E+00  2.8252E-01   1.7175E+00  0.000E+00  0.000E+00  0.000E+00  1.07555E+03  1.909E+00  9.636E+00  7.227E-02  1.955E+00
   1    3    6     3     2    1.7175E+00  2.4905E-01   1.4684E+00  0.000E+00  0.000E+00  0.000E+00  1.07264E+03  1.727E+00  8.909E+00  6.682E-02  1.864E+00
   1    3    7     3     3    1.4684E+00  1.9718E-01   1.2712E+00  0.000E+00  0.000E+00  0.000E+00  1.06987E+03  1.555E+00  8.218E+00  5.547E-02  1.777E+00
   1    4    8     3     4    1.2712E+00  2.2567E-01   1.0456E+00  0.000E+00  0.000E+00  0.000E+00  1.06682E+03  1.364E+00  7.455E+00  6.709E-02  1.682E+00
   1    5    8     3     5    1.0456E+00  1.5790E-01   8.8768E-01  0.000E+00  0.000E+00  0.000E+00  1.06362E+03  1.164E+00  6.655E+00  4.991E-02  1.582E+00
   1    6    8     3     6    8.8768E-01  5.5980E-02   8.3170E-01  0.000E+00  0.000E+00  0.000E+00  1.06158E+03  1.036E+00  6.145E+00  1.844E-02  1.518E+00
   1    5   10     4     1    1.0000E+01  9.0919E-02   9.9091E+00  0.000E+00  0.000E+00  0.000E+00  1.07836E+03  6.368E-01  1.000E+01  2.500E-02  1.212E+00
   1    5    9     4     2    9.9091E+00  1.8158E-01   9.7275E+00  0.000E+00  0.000E+00  0.000E+00  1.07154E+03  6.315E-01  1.000E+01  5.000E-02  1.211E+00
   1    6    8     4     3    9.7275E+00  1.2689E-01   9.6006E+00  0.000E+00  0.000E+00  0.000E+00  1.06381E+03  6.256E-01  1.000E+01  3.500E-02  1.209E+00
   1    6    8     5     1    1.0432E+01  2.2686E-01   1.0205E+01  0.000E+00  0.000E+00  0.000E+00  1.05868E+03  6.790E-01  1.542E+01  6.166E-02  1.226E+00
   1    7    7     5     2    1.0205E+01  2.7894E-01   9.9265E+00  0.000E+00  0.000E+00  0.000E+00  1.05417E+03  6.732E-01  1.519E+01  7.594E-02  1.224E+00
   1    8    7     5     3    9.9265E+00  1.9221E-01   9.7343E+00  0.000E+00  0.000E+00  0.000E+00  1.04992E+03  6.676E-01  1.497E+01  5.241E-02  1.223E+00
   1    8    6     5     4    9.7343E+00  1.3577E-01   9.5985E+00  0.000E+00  0.000E+00  0.000E+00  1.04691E+03  6.637E-01  1.482E+01  3.706E-02  1.221E+00
   1    9    6     6     1    1.3037E+01  2.2931E-01   1.2808E+01  0.000E+00  0.000E+00  0.000E+00  1.04355E+03  8.218E-01  1.200E+01  6.000E-02  1.274E+00
   1   10    7     6     2    1.2808E+01  2.2878E-01   1.2579E+01  0.000E+00  0.000E+00  0.000E+00  1.03899E+03  8.131E-01  1.200E+01  6.000E-02  1.271E+00
   1   11    7     6     3    1.2579E+01  2.2825E-01   1.2351E+01  0.000E+00  0.000E+00  0.000E+00  1.03444E+03  8.042E-01  1.200E+01  6.000E-02  1.268E+00
   1   12    7     6     4    1.2351E+01  2.2772E-01   1.2123E+01  0.000E+00  0.000E+00  0.000E+00  1.02989E+03  7.954E-01  1.200E+01  6.000E-02  1.265E+00
   1   13    7     6     5    1.2123E+01  6.7705E-03   1.2117E+01  0.000E+00  0.000E+00  0.000E+00  1.02670E+03  7.908E-01  1.200E+01  2.400E-02  9.404E-02
   1   14    9     7     1    1.5000E+02  1.3999E+00   1.4860E+02  0.000E+00  0.000E+00  0.000E+00  1.03987E+03  2.288E+00  5.529E+01  5.593E-01  8.343E-01
   1   13    8     7     2    1.4860E+02  2.0416E+00   1.4656E+02  0.000E+00  0.000E+00  0.000E+00  1.03478E+03  2.278E+00  5.525E+01  6.147E-01  1.107E+00
   1   13    7     7     3    1.4656E+02  1.8255E+00   1.4473E+02  0.000E+00  0.000E+00  0.000E+00  1.02969E+03  2.268E+00  5.521E+01  5.583E-01  1.090E+00
   1   13    6     8     1    1.5685E+02  1.1974E+00   1.5565E+02  0.000E+00  0.000E+00  0.000E+00  1.02474E+03  2.860E+00  4.147E+01  4.226E-01  9.444E-01
   1   13    5     8     2    1.5565E+02  4.4668E-01   1.5521E+02  0.000E+00  0.000E+00  0.000E+00  1.01848E+03  2.855E+00  4.139E+01  4.218E-01  3.530E-01
   1   13    4     8     3    1.5521E+02 -1.4834E+00   1.5669E+02  0.000E+00  0.000E+00  0.000E+00  1.01223E+03  2.858E+00  4.144E+01  4.223E+00 -1.171E-01
   1   13    3     8     4    1.5669E+02 -3.1874E+00   1.5988E+02  0.000E+00  0.000E+00  0.000E+00  1.00600E+03  2.874E+00  4.168E+01  4.247E+00 -2.502E-01
   1   13    2     8     5    1.5988E+02 -2.4734E+00   1.6235E+02  0.000E+00  0.000E+00  0.000E+00  9.99768E+02  2.893E+00  4.195E+01  4.275E+00 -1.928E-01
   1   13    1     8     6    1.6235E+02 -1.9606E+00   1.6431E+02  0.000E+00  0.000E+00  0.000E+00  9.94783E+02  2.908E+00  4.217E+01  2.578E+00 -2.535E-01
   1    8    6     9     1    0.0000E+00  0.0000E+00   0.0000E+00  0.000E+00  0.000E+00  0.000E+00  1.07875E+03  0.000E+00  4.000E+00  0.000E+00  1.000E+00
   1    8    5     9     2    0.0000E+00  0.0000E+00   0.0000E+00  0.000E+00  0.000E+00  0.000E+00  1.07825E+03  0.000E+00  4.000E+00  0.000E+00  1.000E+00





UNSATURATED ZONE PACKAGE VOLUMETRIC BUDGET FOR  TIME STEP    30 STRESS PERIOD   38
  ------------------------------------------------------------------------------



     CUMULATIVE VOLUMES      L**3       RATES FOR THIS TIME STEP      L**3/T
     ------------------                 ------------------------

           IN:                                      IN:
           ---                                      ---
        INFILTRATION =  1286321245.3222          INFILTRATION =           0.8475

          OUT:                                     OUT:
          ----                                     ----
              UZF ET =  1284745051.2305                UZF ET =           0.7500
        UZF RECHARGE =       73224.0000          UZF RECHARGE =       0.0000E+00

            IN - OUT =     1502970.0917              IN - OUT =       9.7500E-02

          STORAGE:                                 STORAGE:
          --------                                 --------
      STORAGE CHANGE =     1502970.1943        STORAGE CHANGE =       9.7500E-02

 PERCENT DISCREPANCY IS DIFFERENCE BETWEEN IN-OUT MINUS CHANGE IN STORAGE
 DIVIDED BY THE AVERAGE OF IN AND OUT TIMES 100

 PERCENT DISCREPANCY =           0.00     PERCENT DISCREPANCY =           0.00






1
  VOLUMETRIC BUDGET FOR AGRICULTURAL FIELDS AT  END OF TIME STEP   30, STRESS PERIOD  38
  ------------------------------------------------------------------------------

     CUMULATIVE VOLUMES      L**3       RATES FOR THIS TIME STEP      L**3/T
     ------------------                 ------------------------

           IN:                                      IN:
           ---                                      ---
               AG WELLS  =  1203775104.0000                 AG WELLS  =           0.0000
      DIVERSION SEGMENTS =           0.0000        DIVERSION SEGMENTS =           0.0000
       IRRIGATION PONDS  =           0.0000         IRRIGATION PONDS  =           0.0000
           GW IRRIGATION =           0.0000             GW IRRIGATION =           0.0000
           SW IRRIGATION =           0.0000             SW IRRIGATION =           0.0000
        SYSTEM LOSSES GW =           0.0000          SYSTEM LOSSES GW =           0.0000
        SYSTEM LOSSES SW =           0.0000          SYSTEM LOSSES SW =           0.0000

                TOTAL IN =  1203775104.0000                  TOTAL IN =           0.0000

          OUT:                                     OUT:
          ----                                     ----
               AG WELLS  =           0.0000                 AG WELLS  =           0.0000
      DIVERSION SEGMENTS =           0.0000        DIVERSION SEGMENTS =           0.0000
       IRRIGATION PONDS  =           0.0000         IRRIGATION PONDS  =           0.0000
           GW IRRIGATION =  1203775104.0000             GW IRRIGATION =           0.0000
           SW IRRIGATION =           0.0000             SW IRRIGATION =           0.0000
        SYSTEM LOSSES GW =           0.0000          SYSTEM LOSSES GW =           0.0000
        SYSTEM LOSSES SW =           0.0000          SYSTEM LOSSES SW =           0.0000

               TOTAL OUT =  1203775104.0000                 TOTAL OUT =           0.0000

                IN - OUT =           0.0000                  IN - OUT =           0.0000

     PERCENT DISCREPANCY =           0.00         PERCENT DISCREPANCY =           0.00



1
  VOLUMETRIC BUDGET FOR ENTIRE MODEL AT END OF TIME STEP   30, STRESS PERIOD  38
  ------------------------------------------------------------------------------

     CUMULATIVE VOLUMES      L**3       RATES FOR THIS TIME STEP      L**3/T
     ------------------                 ------------------------

           IN:                                      IN:
           ---                                      ---
             STORAGE     =  1622004992.0000               STORAGE     =           6.0177
       CONSTANT HEAD     =           0.0000         CONSTANT HEAD     =           0.0000
     HEAD DEP BOUNDS     =    28103638.0000       HEAD DEP BOUNDS     =           0.2901
      STREAM LEAKAGE     =  1172580992.0000        STREAM LEAKAGE     =          11.9193
        UZF RECHARGE     =       73223.9531          UZF RECHARGE     =           0.0000
               GW ET     =           0.0000                 GW ET     =           0.0000
     SURFACE LEAKAGE     =           0.0000       SURFACE LEAKAGE     =           0.0000
           AG WELLS      =           0.0000             AG WELLS      =           0.0000

                TOTAL IN =  2822763008.0000                  TOTAL IN =          18.2271

          OUT:                                     OUT:
          ----                                     ----
             STORAGE     =   638362496.0000               STORAGE     =           8.8356
       CONSTANT HEAD     =           0.0000         CONSTANT HEAD     =           0.0000
     HEAD DEP BOUNDS     =    28125218.0000       HEAD DEP BOUNDS     =           0.2867
      STREAM LEAKAGE     =   952505856.0000        STREAM LEAKAGE     =           9.1048
        UZF RECHARGE     =           0.0000          UZF RECHARGE     =           0.0000
               GW ET     =           0.0000                 GW ET     =           0.0000
     SURFACE LEAKAGE     =           0.0000       SURFACE LEAKAGE     =           0.0000
           AG WELLS      =  1203775104.0000             AG WELLS      =           0.0000

               TOTAL OUT =  2822768640.0000                 TOTAL OUT =          18.2271

                IN - OUT =       -5632.0000                  IN - OUT =       1.5259E-05

     PERCENT DISCREPANCY =          -0.00         PERCENT DISCREPANCY =           0.00






         TIME SUMMARY AT END OF TIME STEP   30 IN STRESS PERIOD   38
                    SECONDS     MINUTES      HOURS       DAYS        YEARS
                    -----------------------------------------------------------
   TIME STEP LENGTH  87667.      1461.1      24.352      1.0147     2.77799E-03
 STRESS PERIOD TIME 2.63000E+06  43833.      730.56      30.440     8.33397E-02
         TOTAL TIME 9.73959E+07 1.62326E+06  27054.      1127.3      3.0863    
1
1
                            STRESS PERIOD NO.   39, LENGTH =   2630000.    
                            -----------------------------------------------

                              NUMBER OF TIME STEPS =    30

                               MULTIPLIER FOR DELT =     1.000

                            INITIAL TIME STEP SIZE =   87666.66    

 REUSING NON-PARAMETER GHB CELLS FROM LAST STRESS PERIOD

      2 GHB CELLS

 REUSING STREAM SEGMENT DATA FROM LAST STRESS PERIOD



            AREAL INFILTRATION RATE
 READING ON UNIT   19 WITH FORMAT: (FREE)              

            1           2           3           4           5           6           7           8           9          10
 ........................................................................................................................
   1   1.0000E-10  2.0000E-10   0.000       0.000       0.000       0.000       0.000       0.000       0.000       0.000    
   2   2.0000E-10  1.0000E-10  2.0000E-10   0.000       0.000      8.0000E-10  8.0000E-10  5.0000E-10   0.000       0.000    
   3    0.000      5.0000E-10  1.0000E-10  1.0000E-10  8.0000E-10  8.0000E-10  5.0000E-10  5.0000E-10   0.000       0.000    
   4   8.0000E-10  5.0000E-10  1.0000E-10  1.0000E-10  1.0000E-10  1.0000E-10  1.0000E-10  1.0000E-10  2.0000E-10   0.000    
   5   8.0000E-10  5.0000E-10  1.0000E-10  1.0000E-10  1.0000E-10  1.0000E-10  1.0000E-10  1.0000E-10  1.0000E-10  1.0000E-10
   6   8.0000E-10  5.0000E-10  5.0000E-10  2.0000E-10  2.0000E-10  1.0000E-10  1.0000E-10  1.0000E-10  1.0000E-10  5.0000E-10
   7   8.0000E-10  5.0000E-10  5.0000E-10  2.0000E-10  2.0000E-10  1.0000E-10  1.0000E-10  2.0000E-10  2.0000E-10   0.000    
   8    0.000      5.0000E-10  5.0000E-10  2.0000E-10  2.0000E-10  1.0000E-10  1.0000E-10  2.0000E-10  5.0000E-10   0.000    
   9    0.000      5.0000E-10  5.0000E-10  2.0000E-10  2.0000E-10  1.0000E-10  1.0000E-10  2.0000E-10  5.0000E-10   0.000    
  10    0.000      5.0000E-10  5.0000E-10  2.0000E-10  2.0000E-10  1.0000E-10  1.0000E-10  2.0000E-10  5.0000E-10  8.0000E-10
  11    0.000      1.0000E-10  1.0000E-10  1.0000E-10  1.0000E-10  1.0000E-10  1.0000E-10  2.0000E-10  5.0000E-10   0.000    
  12   1.0000E-10  1.0000E-10  1.0000E-10  1.0000E-10  1.0000E-10  1.0000E-10  1.0000E-10  1.0000E-10  2.0000E-10   0.000    
  13   1.0000E-10  1.0000E-10  2.0000E-10  2.0000E-10  2.0000E-10  2.0000E-10  2.0000E-10  1.0000E-10  1.0000E-10   0.000    
  14    0.000      2.0000E-10  5.0000E-10  5.0000E-10  5.0000E-10  5.0000E-10  5.0000E-10  2.0000E-10  1.0000E-10   0.000    
  15    0.000       0.000      8.0000E-10  8.0000E-10  8.0000E-10  8.0000E-10   0.000       0.000       0.000       0.000    

                  ET RATE =  5.000000E-10

 USING ET EXTINCTION DEPTH FROM PREVIOUS STRESS PERIOD. CURRENT PERIOD IS:      39

 USING EXTINCTION WATER CONTENT FROM PREVIOUS STRESS PERIOD. CURRENT PERIOD IS:      39

 USING AIR ENTRY PRESSURE FROM PREVIOUS STRESS PERIOD. CURRENT PERIOD IS:      39

 USING ROOT PRESSURE HEAD FROM PREVIOUS STRESS PERIOD. CURRENT PERIOD IS:      39

 USING ROOT ACTIVITY FROM PREVIOUS STRESS PERIOD. CURRENT PERIOD IS:      39

 PROCESSING AG STRESS PERIOD DATA

 READING AG STRESS PERIOD DATA

 READING IRRIGATION SEGMENT

 READING IRRIGATION WELL

 READING SUPPLEMENTAL WELL

 NO IRRPOND OR REUSING IRRPOND DATA FROM LAST STRESS PERIOD

 END PROCESSING AG STRESS PERIOD DATA OPTIONS
 
 SOLVING FOR HEAD 
                                                   Max.-Head-Change                         Max.-Flux-Residual
  Residual-Control   Outer-Iter.   Inner-Iter.     Column Row Layer    Maximum-Head-Change  Column Row Layer    Maximum-Flux-Residual          L2-NORM 
          0                 1           2             4    7     1       0.1849430110E-01       4    7    1         0.9700610429E+00      0.2388444906E+01
          0                 2           2             4    7     1      -0.1798998423E-02       4    7    1        -0.9700659136E-01      0.2388429640E+00
          0                 3           2             4    7     1       0.1225050526E-03       4    7    1         0.6790459721E-02      0.1671884234E-01
          0                 4           1             4    7     1      -0.4874591363E-05       4    7    1        -0.2777302198E-03      0.6837999577E-03

    ------------------------------------------------
       NWT REQUIRED            4 OUTER ITERATIONS 
       AND A TOTAL OF          7 INNER ITERATIONS.
    ------------------------------------------------

 NO OUTPUT CONTROL FOR STRESS PERIOD   39   TIME STEP    1
 
 SOLVING FOR HEAD 
                                                   Max.-Head-Change                         Max.-Flux-Residual
  Residual-Control   Outer-Iter.   Inner-Iter.     Column Row Layer    Maximum-Head-Change  Column Row Layer    Maximum-Flux-Residual          L2-NORM 
          0                 1           2             4    7     1       0.1832107754E-01       4    7    1         0.9609174329E+00      0.2371845192E+01
          0                 2           2             4    7     1      -0.1782148324E-02       4    7    1        -0.9609221888E-01      0.2371830355E+00
          0                 3           1             4    7     1       0.1213576284E-03       4    7    1         0.6726453715E-02      0.1660264301E-01
          0                 4           1             4    7     1      -0.4828937398E-05       4    7    1        -0.2751123518E-03      0.6790334609E-03

    ------------------------------------------------
       NWT REQUIRED            4 OUTER ITERATIONS 
       AND A TOTAL OF          6 INNER ITERATIONS.
    ------------------------------------------------

 NO OUTPUT CONTROL FOR STRESS PERIOD   39   TIME STEP    2
 
 SOLVING FOR HEAD 
                                                   Max.-Head-Change                         Max.-Flux-Residual
  Residual-Control   Outer-Iter.   Inner-Iter.     Column Row Layer    Maximum-Head-Change  Column Row Layer    Maximum-Flux-Residual          L2-NORM 
          0                 1           2             4    7     1       0.1815063787E-01       4    7    1         0.9519214462E+00      0.2354341432E+01
          0                 2           2             4    7     1      -0.1765569028E-02       4    7    1        -0.9519260909E-01      0.2354339668E+00
          0                 3           1             4    7     1       0.1202286416E-03       4    7    1         0.6663481119E-02      0.1648033573E-01
          0                 4           1             4    7     1      -0.4784014263E-05       4    7    1        -0.2725367781E-03      0.6740468103E-03

    ------------------------------------------------
       NWT REQUIRED            4 OUTER ITERATIONS 
       AND A TOTAL OF          6 INNER ITERATIONS.
    ------------------------------------------------

 NO OUTPUT CONTROL FOR STRESS PERIOD   39   TIME STEP    3
 
 SOLVING FOR HEAD 
                                                   Max.-Head-Change                         Max.-Flux-Residual
  Residual-Control   Outer-Iter.   Inner-Iter.     Column Row Layer    Maximum-Head-Change  Column Row Layer    Maximum-Flux-Residual          L2-NORM 
          0                 1           2             4    7     1       0.1798291437E-01       4    7    1         0.9430697999E+00      0.2337675739E+01
          0                 2           2             4    7     1      -0.1749253944E-02       4    7    1        -0.9430743366E-01      0.2337677084E+00
          0                 3           1             4    7     1       0.1191176465E-03       4    7    1         0.6601518915E-02      0.1636371831E-01
          0                 4           1             4    7     1      -0.4739806761E-05       4    7    1        -0.2700025261E-03      0.6692783102E-03

    ------------------------------------------------
       NWT REQUIRED            4 OUTER ITERATIONS 
       AND A TOTAL OF          6 INNER ITERATIONS.
    ------------------------------------------------

 NO OUTPUT CONTROL FOR STRESS PERIOD   39   TIME STEP    4
 
 SOLVING FOR HEAD 
                                                   Max.-Head-Change                         Max.-Flux-Residual
  Residual-Control   Outer-Iter.   Inner-Iter.     Column Row Layer    Maximum-Head-Change  Column Row Layer    Maximum-Flux-Residual          L2-NORM 
          0                 1           2             4    7     1       0.1781757219E-01       4    7    1         0.9343444265E+00      0.2321727363E+01
          0                 2           2             4    7     1      -0.1733170503E-02       4    7    1        -0.9343488582E-01      0.2321728009E+00
          0                 3           1             4    7     1       0.1180224255E-03       4    7    1         0.6540440645E-02      0.1625206513E-01
          0                 4           1             4    7     1      -0.4696226704E-05       4    7    1        -0.2675044143E-03      0.6646987271E-03

    ------------------------------------------------
       NWT REQUIRED            4 OUTER ITERATIONS 
       AND A TOTAL OF          6 INNER ITERATIONS.
    ------------------------------------------------

 NO OUTPUT CONTROL FOR STRESS PERIOD   39   TIME STEP    5
 
 SOLVING FOR HEAD 
                                                   Max.-Head-Change                         Max.-Flux-Residual
  Residual-Control   Outer-Iter.   Inner-Iter.     Column Row Layer    Maximum-Head-Change  Column Row Layer    Maximum-Flux-Residual          L2-NORM 
          0                 1           2             4    7     1       0.1765495886E-01       4    7    1         0.9257643552E+00      0.2305987221E+01
          0                 2           2             4    7     1      -0.1717352510E-02       4    7    1        -0.9257686853E-01      0.2305987417E+00
          0                 3           1             4    7     1       0.1169452801E-03       4    7    1         0.6480379495E-02      0.1614188212E-01
          0                 4           1             4    7     1      -0.4653366080E-05       4    7    1        -0.2650479130E-03      0.6602061824E-03

    ------------------------------------------------
       NWT REQUIRED            4 OUTER ITERATIONS 
       AND A TOTAL OF          6 INNER ITERATIONS.
    ------------------------------------------------

 NO OUTPUT CONTROL FOR STRESS PERIOD   39   TIME STEP    6
 
 SOLVING FOR HEAD 
                                                   Max.-Head-Change                         Max.-Flux-Residual
  Residual-Control   Outer-Iter.   Inner-Iter.     Column Row Layer    Maximum-Head-Change  Column Row Layer    Maximum-Flux-Residual          L2-NORM 
          0                 1           2             4    7     1       0.1749474080E-01       4    7    1         0.9173112139E+00      0.2290451051E+01
          0                 2           2             4    7     1      -0.1701767516E-02       4    7    1        -0.9173154449E-01      0.2290450708E+00
          0                 3           1             4    7     1       0.1158840012E-03       4    7    1         0.6421206880E-02      0.1603313163E-01
          0                 4           1             4    7     1      -0.4611137046E-05       4    7    1        -0.2626277517E-03      0.6557571337E-03

    ------------------------------------------------
       NWT REQUIRED            4 OUTER ITERATIONS 
       AND A TOTAL OF          6 INNER ITERATIONS.
    ------------------------------------------------

 NO OUTPUT CONTROL FOR STRESS PERIOD   39   TIME STEP    7
 
 SOLVING FOR HEAD 
                                                   Max.-Head-Change                         Max.-Flux-Residual
  Residual-Control   Outer-Iter.   Inner-Iter.     Column Row Layer    Maximum-Head-Change  Column Row Layer    Maximum-Flux-Residual          L2-NORM 
          0                 1           2             4    7     1       0.1733685994E-01       4    7    1         0.9089822636E+00      0.2275110547E+01
          0                 2           2             4    7     1      -0.1686409870E-02       4    7    1        -0.9089863986E-01      0.2275109796E+00
          0                 3           1             4    7     1       0.1148382037E-03       4    7    1         0.6362903629E-02      0.1592574158E-01
          0                 4           1             4    7     1      -0.4569523484E-05       4    7    1        -0.2602431355E-03      0.6513684936E-03

    ------------------------------------------------
       NWT REQUIRED            4 OUTER ITERATIONS 
       AND A TOTAL OF          6 INNER ITERATIONS.
    ------------------------------------------------

 NO OUTPUT CONTROL FOR STRESS PERIOD   39   TIME STEP    8
 
 SOLVING FOR HEAD 
                                                   Max.-Head-Change                         Max.-Flux-Residual
  Residual-Control   Outer-Iter.   Inner-Iter.     Column Row Layer    Maximum-Head-Change  Column Row Layer    Maximum-Flux-Residual          L2-NORM 
          0                 1           2             4    7     1       0.1718153203E-01       4    7    1         0.9007890506E+00      0.2259968254E+01
          0                 2           2             4    7     1      -0.1671300563E-02       4    7    1        -0.9007930926E-01      0.2259967045E+00
          0                 3           1             4    7     1       0.1138093176E-03       4    7    1         0.6305550563E-02      0.1581975626E-01
          0                 4           1             4    7     1      -0.4528583189E-05       4    7    1        -0.2578973931E-03      0.6470629805E-03

    ------------------------------------------------
       NWT REQUIRED            4 OUTER ITERATIONS 
       AND A TOTAL OF          6 INNER ITERATIONS.
    ------------------------------------------------

 NO OUTPUT CONTROL FOR STRESS PERIOD   39   TIME STEP    9
 
 SOLVING FOR HEAD 
                                                   Max.-Head-Change                         Max.-Flux-Residual
  Residual-Control   Outer-Iter.   Inner-Iter.     Column Row Layer    Maximum-Head-Change  Column Row Layer    Maximum-Flux-Residual          L2-NORM 
          0                 1           2             4    7     1       0.1702842590E-01       4    7    1         0.8927136467E+00      0.2245017179E+01
          0                 2           2             4    7     1      -0.1656407377E-02       4    7    1        -0.8927175980E-01      0.2245015406E+00
          0                 3           1             4    7     1       0.1127951476E-03       4    7    1         0.6249022144E-02      0.1571505914E-01
          0                 4           1             4    7     1      -0.4488228202E-05       4    7    1        -0.2555853682E-03      0.6427364989E-03

    ------------------------------------------------
       NWT REQUIRED            4 OUTER ITERATIONS 
       AND A TOTAL OF          6 INNER ITERATIONS.
    ------------------------------------------------

 NO OUTPUT CONTROL FOR STRESS PERIOD   39   TIME STEP   10
 
 SOLVING FOR HEAD 
                                                   Max.-Head-Change                         Max.-Flux-Residual
  Residual-Control   Outer-Iter.   Inner-Iter.     Column Row Layer    Maximum-Head-Change  Column Row Layer    Maximum-Flux-Residual          L2-NORM 
          0                 1           2             4    7     1       0.1687749207E-01       4    7    1         0.8847534376E+00      0.2230253205E+01
          0                 2           2             4    7     1      -0.1641725501E-02       4    7    1        -0.8847573009E-01      0.2230251093E+00
          0                 3           1             4    7     1       0.1117953677E-03       4    7    1         0.6193300117E-02      0.1561171427E-01
          0                 4           1             4    7     1      -0.4448446320E-05       4    7    1        -0.2533063496E-03      0.6385253874E-03

    ------------------------------------------------
       NWT REQUIRED            4 OUTER ITERATIONS 
       AND A TOTAL OF          6 INNER ITERATIONS.
    ------------------------------------------------

 NO OUTPUT CONTROL FOR STRESS PERIOD   39   TIME STEP   11
 
 SOLVING FOR HEAD 
                                                   Max.-Head-Change                         Max.-Flux-Residual
  Residual-Control   Outer-Iter.   Inner-Iter.     Column Row Layer    Maximum-Head-Change  Column Row Layer    Maximum-Flux-Residual          L2-NORM 
          0                 1           2             4    7     1       0.1672894796E-01       4    7    1         0.8769204183E+00      0.2215677762E+01
          0                 2           2             4    7     1      -0.1627276083E-02       4    7    1        -0.8769241964E-01      0.2215675055E+00
          0                 3           1             4    7     1       0.1108114171E-03       4    7    1         0.6138468448E-02      0.1550968207E-01
          0                 4           1             4    7     1      -0.4409293726E-05       4    7    1        -0.2510637271E-03      0.6343481202E-03

    ------------------------------------------------
       NWT REQUIRED            4 OUTER ITERATIONS 
       AND A TOTAL OF          6 INNER ITERATIONS.
    ------------------------------------------------

 NO OUTPUT CONTROL FOR STRESS PERIOD   39   TIME STEP   12
 
 SOLVING FOR HEAD 
                                                   Max.-Head-Change                         Max.-Flux-Residual
  Residual-Control   Outer-Iter.   Inner-Iter.     Column Row Layer    Maximum-Head-Change  Column Row Layer    Maximum-Flux-Residual          L2-NORM 
          0                 1           2             4    7     1       0.1658247174E-01       4    7    1         0.8691967428E+00      0.2201279945E+01
          0                 2           2             4    7     1      -0.1613027818E-02       4    7    1        -0.8692004377E-01      0.2201276892E+00
          0                 3           1             4    7     1       0.1098411643E-03       4    7    1         0.6084402190E-02      0.1540888020E-01
          0                 4           1             4    7     1      -0.4370686606E-05       4    7    1        -0.2488524181E-03      0.6302140621E-03

    ------------------------------------------------
       NWT REQUIRED            4 OUTER ITERATIONS 
       AND A TOTAL OF          6 INNER ITERATIONS.
    ------------------------------------------------

 NO OUTPUT CONTROL FOR STRESS PERIOD   39   TIME STEP   13
 
 SOLVING FOR HEAD 
                                                   Max.-Head-Change                         Max.-Flux-Residual
  Residual-Control   Outer-Iter.   Inner-Iter.     Column Row Layer    Maximum-Head-Change  Column Row Layer    Maximum-Flux-Residual          L2-NORM 
          0                 1           2             4    7     1       0.1643814810E-01       4    7    1         0.8615875637E+00      0.2187062021E+01
          0                 2           2             4    7     1      -0.1598988943E-02       4    7    1        -0.8615911778E-01      0.2187058583E+00
          0                 3           1             4    7     1       0.1088851698E-03       4    7    1         0.6031137422E-02      0.1530934262E-01
          0                 4           1             4    7     1      -0.4332646144E-05       4    7    1        -0.2466738636E-03      0.6261444878E-03

    ------------------------------------------------
       NWT REQUIRED            4 OUTER ITERATIONS 
       AND A TOTAL OF          6 INNER ITERATIONS.
    ------------------------------------------------

 NO OUTPUT CONTROL FOR STRESS PERIOD   39   TIME STEP   14
 
 SOLVING FOR HEAD 
                                                   Max.-Head-Change                         Max.-Flux-Residual
  Residual-Control   Outer-Iter.   Inner-Iter.     Column Row Layer    Maximum-Head-Change  Column Row Layer    Maximum-Flux-Residual          L2-NORM 
          0                 1           2             4    7     1       0.1629593105E-01       4    7    1         0.8540899926E+00      0.2173018701E+01
          0                 2           2             4    7     1      -0.1585154986E-02       4    7    1        -0.8540935284E-01      0.2173014920E+00
          0                 3           1             4    7     1       0.1079431302E-03       4    7    1         0.5978653935E-02      0.1521104196E-01
          0                 4           1             4    7     1      -0.4295161749E-05       4    7    1        -0.2445273069E-03      0.6221361886E-03

    ------------------------------------------------
       NWT REQUIRED            4 OUTER ITERATIONS 
       AND A TOTAL OF          6 INNER ITERATIONS.
    ------------------------------------------------

 NO OUTPUT CONTROL FOR STRESS PERIOD   39   TIME STEP   15
 
 SOLVING FOR HEAD 
                                                   Max.-Head-Change                         Max.-Flux-Residual
  Residual-Control   Outer-Iter.   Inner-Iter.     Column Row Layer    Maximum-Head-Change  Column Row Layer    Maximum-Flux-Residual          L2-NORM 
          0                 1           2             4    7     1       0.1615563773E-01       4    7    1         0.8466943642E+00      0.2159147272E+01
          0                 2           2             4    7     1      -0.1571508158E-02       4    7    1        -0.8466978234E-01      0.2159143089E+00
          0                 3           1             4    7     1       0.1070138328E-03       4    7    1         0.5926884054E-02      0.1511394518E-01
          0                 4           1             4    7     1      -0.4258184145E-05       4    7    1        -0.2424099107E-03      0.6181664594E-03

    ------------------------------------------------
       NWT REQUIRED            4 OUTER ITERATIONS 
       AND A TOTAL OF          6 INNER ITERATIONS.
    ------------------------------------------------

 NO OUTPUT CONTROL FOR STRESS PERIOD   39   TIME STEP   16
 
 SOLVING FOR HEAD 
                                                   Max.-Head-Change                         Max.-Flux-Residual
  Residual-Control   Outer-Iter.   Inner-Iter.     Column Row Layer    Maximum-Head-Change  Column Row Layer    Maximum-Flux-Residual          L2-NORM 
          0                 1           2             4    7     1       0.1601749397E-01       4    7    1         0.8394130402E+00      0.2145445605E+01
          0                 2           2             4    7     1      -0.1558070428E-02       4    7    1        -0.8394164250E-01      0.2145440917E+00
          0                 3           1             4    7     1       0.1060987744E-03       4    7    1         0.5875914318E-02      0.1501805361E-01
          0                 4           1             4    7     1      -0.4221773314E-05       4    7    1        -0.2403252547E-03      0.6142300511E-03

    ------------------------------------------------
       NWT REQUIRED            4 OUTER ITERATIONS 
       AND A TOTAL OF          6 INNER ITERATIONS.
    ------------------------------------------------

 NO OUTPUT CONTROL FOR STRESS PERIOD   39   TIME STEP   17
 
 SOLVING FOR HEAD 
                                                   Max.-Head-Change                         Max.-Flux-Residual
  Residual-Control   Outer-Iter.   Inner-Iter.     Column Row Layer    Maximum-Head-Change  Column Row Layer    Maximum-Flux-Residual          L2-NORM 
          0                 1           2             4    7     1       0.1588118421E-01       4    7    1         0.8322286052E+00      0.2131906416E+01
          0                 2           2             4    7     1      -0.1544811097E-02       4    7    1        -0.8322319178E-01      0.2131901773E+00
          0                 3           1             4    7     1       0.1051958638E-03       4    7    1         0.5825622798E-02      0.1492324235E-01
          0                 4           1             4    7     1      -0.4185845674E-05       4    7    1        -0.2382683133E-03      0.6103611025E-03

    ------------------------------------------------
       NWT REQUIRED            4 OUTER ITERATIONS 
       AND A TOTAL OF          6 INNER ITERATIONS.
    ------------------------------------------------

 NO OUTPUT CONTROL FOR STRESS PERIOD   39   TIME STEP   18
 
 SOLVING FOR HEAD 
                                                   Max.-Head-Change                         Max.-Flux-Residual
  Residual-Control   Outer-Iter.   Inner-Iter.     Column Row Layer    Maximum-Head-Change  Column Row Layer    Maximum-Flux-Residual          L2-NORM 
          0                 1           2             4    7     1       0.1574693501E-01       4    7    1         0.8251538230E+00      0.2118538112E+01
          0                 2           2             4    7     1      -0.1531752207E-02       4    7    1        -0.8251570656E-01      0.2118533102E+00
          0                 3           1             4    7     1       0.1043066030E-03       4    7    1         0.5776098895E-02      0.1482966545E-01
          0                 4           1             4    7     1      -0.4150461091E-05       4    7    1        -0.2362427811E-03      0.6065352558E-03

    ------------------------------------------------
       NWT REQUIRED            4 OUTER ITERATIONS 
       AND A TOTAL OF          6 INNER ITERATIONS.
    ------------------------------------------------

 NO OUTPUT CONTROL FOR STRESS PERIOD   39   TIME STEP   19
 
 SOLVING FOR HEAD 
                                                   Max.-Head-Change                         Max.-Flux-Residual
  Residual-Control   Outer-Iter.   Inner-Iter.     Column Row Layer    Maximum-Head-Change  Column Row Layer    Maximum-Flux-Residual          L2-NORM 
          0                 1           2             4    7     1       0.1561456321E-01       4    7    1         0.8181785960E+00      0.2105324806E+01
          0                 2           2             4    7     1      -0.1518875939E-02       4    7    1        -0.8181817703E-01      0.2105319575E+00
          0                 3           1             4    7     1       0.1034297778E-03       4    7    1         0.5727271860E-02      0.1473716141E-01
          0                 4           1             4    7     1      -0.4115571096E-05       4    7    1        -0.2342457615E-03      0.6027448583E-03

    ------------------------------------------------
       NWT REQUIRED            4 OUTER ITERATIONS 
       AND A TOTAL OF          6 INNER ITERATIONS.
    ------------------------------------------------

 NO OUTPUT CONTROL FOR STRESS PERIOD   39   TIME STEP   20
 
 SOLVING FOR HEAD 
                                                   Max.-Head-Change                         Max.-Flux-Residual
  Residual-Control   Outer-Iter.   Inner-Iter.     Column Row Layer    Maximum-Head-Change  Column Row Layer    Maximum-Flux-Residual          L2-NORM 
          0                 1           2             4    7     1       0.1548389525E-01       4    7    1         0.8112934271E+00      0.2092269087E+01
          0                 2           2             4    7     1      -0.1506165411E-02       4    7    1        -0.8112965347E-01      0.2092263562E+00
          0                 3           1             4    7     1       0.1025642388E-03       4    7    1         0.5679075250E-02      0.1464577292E-01
          0                 4           1             4    7     1      -0.4081130560E-05       4    7    1        -0.2322745115E-03      0.5990156367E-03

    ------------------------------------------------
       NWT REQUIRED            4 OUTER ITERATIONS 
       AND A TOTAL OF          6 INNER ITERATIONS.
    ------------------------------------------------

 NO OUTPUT CONTROL FOR STRESS PERIOD   39   TIME STEP   21
 
 SOLVING FOR HEAD 
                                                   Max.-Head-Change                         Max.-Flux-Residual
  Residual-Control   Outer-Iter.   Inner-Iter.     Column Row Layer    Maximum-Head-Change  Column Row Layer    Maximum-Flux-Residual          L2-NORM 
          0                 1           2             4    7     1       0.1535516660E-01       4    7    1         0.8045111646E+00      0.2079373718E+01
          0                 2           2             4    7     1      -0.1493643528E-02       4    7    1        -0.8045142076E-01      0.2079368180E+00
          0                 3           1             4    7     1       0.1017115460E-03       4    7    1         0.5631599003E-02      0.1455552128E-01
          0                 4           1             4    7     1      -0.4047201189E-05       4    7    1        -0.2303327367E-03      0.5953160353E-03

    ------------------------------------------------
       NWT REQUIRED            4 OUTER ITERATIONS 
       AND A TOTAL OF          6 INNER ITERATIONS.
    ------------------------------------------------

 NO OUTPUT CONTROL FOR STRESS PERIOD   39   TIME STEP   22
 
 SOLVING FOR HEAD 
                                                   Max.-Head-Change                         Max.-Flux-Residual
  Residual-Control   Outer-Iter.   Inner-Iter.     Column Row Layer    Maximum-Head-Change  Column Row Layer    Maximum-Flux-Residual          L2-NORM 
          0                 1           2             4    7     1       0.1522806577E-01       4    7    1         0.7978148868E+00      0.2066633664E+01
          0                 2           2             4    7     1      -0.1481279989E-02       4    7    1        -0.7978178666E-01      0.2066627672E+00
          0                 3           1             4    7     1       0.1008696359E-03       4    7    1         0.5584724667E-02      0.1446631936E-01
          0                 4           1             4    7     1      -0.4013700900E-05       4    7    1        -0.2284155712E-03      0.5916655345E-03

    ------------------------------------------------
       NWT REQUIRED            4 OUTER ITERATIONS 
       AND A TOTAL OF          6 INNER ITERATIONS.
    ------------------------------------------------

 NO OUTPUT CONTROL FOR STRESS PERIOD   39   TIME STEP   23
 
 SOLVING FOR HEAD 
                                                   Max.-Head-Change                         Max.-Flux-Residual
  Residual-Control   Outer-Iter.   Inner-Iter.     Column Row Layer    Maximum-Head-Change  Column Row Layer    Maximum-Flux-Residual          L2-NORM 
          0                 1           2             4    7     1       0.1510282515E-01       4    7    1         0.7912175742E+00      0.2054034598E+01
          0                 2           2             4    7     1      -0.1469097401E-02       4    7    1        -0.7912204928E-01      0.2054028403E+00
          0                 3           1             4    7     1       0.1000400474E-03       4    7    1         0.5538543082E-02      0.1437809483E-01
          0                 4           1             4    7     1      -0.3980690593E-05       4    7    1        -0.2265267321E-03      0.5880494536E-03

    ------------------------------------------------
       NWT REQUIRED            4 OUTER ITERATIONS 
       AND A TOTAL OF          6 INNER ITERATIONS.
    ------------------------------------------------

 NO OUTPUT CONTROL FOR STRESS PERIOD   39   TIME STEP   24
 
 SOLVING FOR HEAD 
                                                   Max.-Head-Change                         Max.-Flux-Residual
  Residual-Control   Outer-Iter.   Inner-Iter.     Column Row Layer    Maximum-Head-Change  Column Row Layer    Maximum-Flux-Residual          L2-NORM 
          0                 1           2             4    7     1       0.1497927116E-01       4    7    1         0.7847094282E+00      0.2041593155E+01
          0                 2           2             4    7     1      -0.1457078878E-02       4    7    1        -0.7847122868E-01      0.2041587039E+00
          0                 3           1             4    7     1       0.9922163162E-04       4    7    1         0.5492985678E-02      0.1429104357E-01

    ------------------------------------------------
       NWT REQUIRED            3 OUTER ITERATIONS 
       AND A TOTAL OF          5 INNER ITERATIONS.
    ------------------------------------------------

 NO OUTPUT CONTROL FOR STRESS PERIOD   39   TIME STEP   25
 
 SOLVING FOR HEAD 
                                                   Max.-Head-Change                         Max.-Flux-Residual
  Residual-Control   Outer-Iter.   Inner-Iter.     Column Row Layer    Maximum-Head-Change  Column Row Layer    Maximum-Flux-Residual          L2-NORM 
          0                 1           2             4    7     1       0.1485732547E-01       4    7    1         0.7782863989E+00      0.2029289795E+01
          0                 2           2             4    7     1      -0.1445216801E-02       4    7    1        -0.7782891993E-01      0.2029283493E+00
          0                 3           1             4    7     1       0.9841386870E-04       4    7    1         0.5448024089E-02      0.1420491032E-01

    ------------------------------------------------
       NWT REQUIRED            3 OUTER ITERATIONS 
       AND A TOTAL OF          5 INNER ITERATIONS.
    ------------------------------------------------

 NO OUTPUT CONTROL FOR STRESS PERIOD   39   TIME STEP   26
 
 SOLVING FOR HEAD 
                                                   Max.-Head-Change                         Max.-Flux-Residual
  Residual-Control   Outer-Iter.   Inner-Iter.     Column Row Layer    Maximum-Head-Change  Column Row Layer    Maximum-Flux-Residual          L2-NORM 
          0                 1           2             4    7     1       0.1473712873E-01       4    7    1         0.7719564022E+00      0.2017133412E+01
          0                 2           2             4    7     1      -0.1433524852E-02       4    7    1        -0.7719591460E-01      0.2017126951E+00
          0                 3           1             4    7     1       0.9761769118E-04       4    7    1         0.5403713751E-02      0.1411981260E-01

    ------------------------------------------------
       NWT REQUIRED            3 OUTER ITERATIONS 
       AND A TOTAL OF          5 INNER ITERATIONS.
    ------------------------------------------------

 NO OUTPUT CONTROL FOR STRESS PERIOD   39   TIME STEP   27
 
 SOLVING FOR HEAD 
                                                   Max.-Head-Change                         Max.-Flux-Residual
  Residual-Control   Outer-Iter.   Inner-Iter.     Column Row Layer    Maximum-Head-Change  Column Row Layer    Maximum-Flux-Residual          L2-NORM 
          0                 1           2             4    7     1       0.1461837714E-01       4    7    1         0.7657025180E+00      0.2005114516E+01
          0                 2           2             4    7     1      -0.1421973478E-02       4    7    1        -0.7657052063E-01      0.2005107483E+00
          0                 3           1             4    7     1       0.9683108626E-04       4    7    1         0.5359936217E-02      0.1403564178E-01

    ------------------------------------------------
       NWT REQUIRED            3 OUTER ITERATIONS 
       AND A TOTAL OF          5 INNER ITERATIONS.
    ------------------------------------------------

 NO OUTPUT CONTROL FOR STRESS PERIOD   39   TIME STEP   28
 
 SOLVING FOR HEAD 
                                                   Max.-Head-Change                         Max.-Flux-Residual
  Residual-Control   Outer-Iter.   Inner-Iter.     Column Row Layer    Maximum-Head-Change  Column Row Layer    Maximum-Flux-Residual          L2-NORM 
          0                 1           2             4    7     1       0.1450131276E-01       4    7    1         0.7595381299E+00      0.1993241383E+01
          0                 2           2             4    7     1      -0.1410586226E-02       4    7    1        -0.7595407645E-01      0.1993234490E+00
          0                 3           1             4    7     1       0.9605565753E-04       4    7    1         0.5316785163E-02      0.1395256258E-01

    ------------------------------------------------
       NWT REQUIRED            3 OUTER ITERATIONS 
       AND A TOTAL OF          5 INNER ITERATIONS.
    ------------------------------------------------

 NO OUTPUT CONTROL FOR STRESS PERIOD   39   TIME STEP   29
 
 SOLVING FOR HEAD 
                                                   Max.-Head-Change                         Max.-Flux-Residual
  Residual-Control   Outer-Iter.   Inner-Iter.     Column Row Layer    Maximum-Head-Change  Column Row Layer    Maximum-Flux-Residual          L2-NORM 
          0                 1           2             4    7     1       0.1438585951E-01       4    7    1         0.7534539363E+00      0.2003051179E+01
          0                 2           2             4    7     1      -0.1399355693E-02       4    7    1        -0.7534565171E-01      0.2001759803E+00
          0                 3           1             4    7     1       0.9529090051E-04       4    7    1         0.5274195462E-02      0.1400061624E-01

    ------------------------------------------------
       NWT REQUIRED            3 OUTER ITERATIONS 
       AND A TOTAL OF          5 INNER ITERATIONS.
    ------------------------------------------------

 NO OUTPUT CONTROL FOR STRESS PERIOD   39   TIME STEP   30



 STREAM LISTING     PERIOD     39   STEP       30

 LAYER ROW COL. STREAM  RCH.  FLOW INTO     FLOW TO   FLOW OUT OF   OVRLND.     DIRECT     STREAM       STREAM     STREAM     STREAM   STREAMBED  STREAMBED
                SEG.NO.  NO.  STRM. RCH.    AQUIFER    STRM. RCH.    RUNOFF     PRECIP       ET          HEAD       DEPTH      WIDTH   CONDCTNC.   GRADIENT

   1    1    1     1     1    1.6375E+01  1.9673E-01   1.6178E+01  0.000E+00  0.000E+00  0.000E+00  1.09408E+03  1.036E+00  1.083E+01  4.874E-02  1.345E+00
   1    2    2     1     2    1.6178E+01  3.0333E-01   1.5875E+01  0.000E+00  0.000E+00  0.000E+00  1.08909E+03  1.032E+00  1.075E+01  7.524E-02  1.344E+00
   1    3    3     1     3    1.5875E+01  2.5739E-01   1.5618E+01  0.000E+00  0.000E+00  0.000E+00  1.08345E+03  1.026E+00  1.065E+01  6.392E-02  1.342E+00
   1    3    4     1     4    1.5618E+01  2.3595E-01   1.5382E+01  0.000E+00  0.000E+00  0.000E+00  1.07843E+03  1.022E+00  1.057E+01  5.867E-02  1.341E+00
   1    4    5     2     1    1.3382E+01  2.9830E-01   1.3084E+01  0.000E+00  0.000E+00  0.000E+00  1.07276E+03  8.244E-01  1.200E+01  7.800E-02  1.275E+00
   1    5    6     2     2    1.3084E+01  2.2887E-01   1.2855E+01  0.000E+00  0.000E+00  0.000E+00  1.06732E+03  8.145E-01  1.200E+01  6.000E-02  1.271E+00
   1    6    6     2     3    1.2855E+01  2.2835E-01   1.2626E+01  0.000E+00  0.000E+00  0.000E+00  1.06260E+03  8.059E-01  1.200E+01  6.000E-02  1.269E+00
   1    7    6     2     4    1.2626E+01  2.2783E-01   1.2398E+01  0.000E+00  0.000E+00  0.000E+00  1.05787E+03  7.972E-01  1.200E+01  6.000E-02  1.266E+00
   1    8    6     2     5    1.2398E+01  2.2731E-01   1.2171E+01  0.000E+00  0.000E+00  0.000E+00  1.05315E+03  7.884E-01  1.200E+01  6.000E-02  1.263E+00
   1    3    5     3     1    2.0000E+00  2.8252E-01   1.7175E+00  0.000E+00  0.000E+00  0.000E+00  1.07555E+03  1.909E+00  9.636E+00  7.227E-02  1.955E+00
   1    3    6     3     2    1.7175E+00  2.4905E-01   1.4684E+00  0.000E+00  0.000E+00  0.000E+00  1.07264E+03  1.727E+00  8.909E+00  6.682E-02  1.864E+00
   1    3    7     3     3    1.4684E+00  1.9718E-01   1.2712E+00  0.000E+00  0.000E+00  0.000E+00  1.06987E+03  1.555E+00  8.218E+00  5.547E-02  1.777E+00
   1    4    8     3     4    1.2712E+00  2.2567E-01   1.0456E+00  0.000E+00  0.000E+00  0.000E+00  1.06682E+03  1.364E+00  7.455E+00  6.709E-02  1.682E+00
   1    5    8     3     5    1.0456E+00  1.5790E-01   8.8768E-01  0.000E+00  0.000E+00  0.000E+00  1.06362E+03  1.164E+00  6.655E+00  4.991E-02  1.582E+00
   1    6    8     3     6    8.8768E-01  5.5980E-02   8.3170E-01  0.000E+00  0.000E+00  0.000E+00  1.06158E+03  1.036E+00  6.145E+00  1.844E-02  1.518E+00
   1    5   10     4     1    1.0000E+01  9.0919E-02   9.9091E+00  0.000E+00  0.000E+00  0.000E+00  1.07836E+03  6.368E-01  1.000E+01  2.500E-02  1.212E+00
   1    5    9     4     2    9.9091E+00  1.8158E-01   9.7275E+00  0.000E+00  0.000E+00  0.000E+00  1.07154E+03  6.315E-01  1.000E+01  5.000E-02  1.211E+00
   1    6    8     4     3    9.7275E+00  1.2689E-01   9.6006E+00  0.000E+00  0.000E+00  0.000E+00  1.06381E+03  6.256E-01  1.000E+01  3.500E-02  1.209E+00
   1    6    8     5     1    1.0432E+01  2.2686E-01   1.0205E+01  0.000E+00  0.000E+00  0.000E+00  1.05868E+03  6.790E-01  1.542E+01  6.166E-02  1.226E+00
   1    7    7     5     2    1.0205E+01  2.7894E-01   9.9265E+00  0.000E+00  0.000E+00  0.000E+00  1.05417E+03  6.732E-01  1.519E+01  7.594E-02  1.224E+00
   1    8    7     5     3    9.9265E+00  1.9221E-01   9.7343E+00  0.000E+00  0.000E+00  0.000E+00  1.04992E+03  6.676E-01  1.497E+01  5.241E-02  1.223E+00
   1    8    6     5     4    9.7343E+00  1.3577E-01   9.5985E+00  0.000E+00  0.000E+00  0.000E+00  1.04691E+03  6.637E-01  1.482E+01  3.706E-02  1.221E+00
   1    9    6     6     1    2.1770E+01  2.4720E-01   2.1522E+01  0.000E+00  0.000E+00  0.000E+00  1.04385E+03  1.120E+00  1.200E+01  6.000E-02  1.373E+00
   1   10    7     6     2    2.1522E+01  2.4674E-01   2.1276E+01  0.000E+00  0.000E+00  0.000E+00  1.03929E+03  1.112E+00  1.200E+01  6.000E-02  1.371E+00
   1   11    7     6     3    2.1276E+01  2.4627E-01   2.1029E+01  0.000E+00  0.000E+00  0.000E+00  1.03474E+03  1.105E+00  1.200E+01  6.000E-02  1.368E+00
   1   12    7     6     4    2.1029E+01  2.4581E-01   2.0784E+01  0.000E+00  0.000E+00  0.000E+00  1.03019E+03  1.097E+00  1.200E+01  6.000E-02  1.366E+00
   1   13    7     6     5    2.0784E+01  1.4599E-02   2.0769E+01  0.000E+00  0.000E+00  0.000E+00  1.02700E+03  1.093E+00  1.200E+01  2.400E-02  2.028E-01
   1   14    9     7     1    1.5000E+02  1.4015E+00   1.4860E+02  0.000E+00  0.000E+00  0.000E+00  1.03987E+03  2.288E+00  5.529E+01  5.593E-01  8.353E-01
   1   13    8     7     2    1.4860E+02  2.0484E+00   1.4655E+02  0.000E+00  0.000E+00  0.000E+00  1.03478E+03  2.278E+00  5.525E+01  6.147E-01  1.111E+00
   1   13    7     7     3    1.4655E+02  1.8390E+00   1.4471E+02  0.000E+00  0.000E+00  0.000E+00  1.02969E+03  2.268E+00  5.521E+01  5.583E-01  1.098E+00
   1   13    6     8     1    1.6548E+02  1.2593E+00   1.6422E+02  0.000E+00  0.000E+00  0.000E+00  1.02479E+03  2.918E+00  4.232E+01  4.312E-01  9.735E-01
   1   13    5     8     2    1.6422E+02  4.9138E-01   1.6373E+02  0.000E+00  0.000E+00  0.000E+00  1.01854E+03  2.913E+00  4.223E+01  4.304E-01  3.806E-01
   1   13    4     8     3    1.6373E+02 -1.2565E+00   1.6499E+02  0.000E+00  0.000E+00  0.000E+00  1.01229E+03  2.915E+00  4.227E+01  4.307E+00 -9.723E-02
   1   13    3     8     4    1.6499E+02 -3.0094E+00   1.6800E+02  0.000E+00  0.000E+00  0.000E+00  1.00605E+03  2.929E+00  4.247E+01  4.328E+00 -2.318E-01
   1   13    2     8     5    1.6800E+02 -2.3008E+00   1.7030E+02  0.000E+00  0.000E+00  0.000E+00  9.99822E+02  2.947E+00  4.273E+01  4.354E+00 -1.761E-01
   1   13    1     8     6    1.7030E+02 -1.8622E+00   1.7216E+02  0.000E+00  0.000E+00  0.000E+00  9.94835E+02  2.960E+00  4.292E+01  2.624E+00 -2.365E-01
   1    8    6     9     1    0.0000E+00  0.0000E+00   0.0000E+00  0.000E+00  0.000E+00  0.000E+00  1.07875E+03  0.000E+00  4.000E+00  0.000E+00  1.000E+00
   1    8    5     9     2    0.0000E+00  0.0000E+00   0.0000E+00  0.000E+00  0.000E+00  0.000E+00  1.07825E+03  0.000E+00  4.000E+00  0.000E+00  1.000E+00





UNSATURATED ZONE PACKAGE VOLUMETRIC BUDGET FOR  TIME STEP    30 STRESS PERIOD   39
  ------------------------------------------------------------------------------



     CUMULATIVE VOLUMES      L**3       RATES FOR THIS TIME STEP      L**3/T
     ------------------                 ------------------------

           IN:                                      IN:
           ---                                      ---
        INFILTRATION =  1288550170.1949          INFILTRATION =           0.8475

          OUT:                                     OUT:
          ----                                     ----
              UZF ET =  1286717551.0803                UZF ET =           0.7500
        UZF RECHARGE =       73224.0000          UZF RECHARGE =       0.0000E+00

            IN - OUT =     1759395.1147              IN - OUT =       9.7500E-02

          STORAGE:                                 STORAGE:
          --------                                 --------
      STORAGE CHANGE =     1759395.2369        STORAGE CHANGE =       9.7500E-02

 PERCENT DISCREPANCY IS DIFFERENCE BETWEEN IN-OUT MINUS CHANGE IN STORAGE
 DIVIDED BY THE AVERAGE OF IN AND OUT TIMES 100

 PERCENT DISCREPANCY =           0.00     PERCENT DISCREPANCY =           0.00






1
  VOLUMETRIC BUDGET FOR AGRICULTURAL FIELDS AT  END OF TIME STEP   30, STRESS PERIOD  39
  ------------------------------------------------------------------------------

     CUMULATIVE VOLUMES      L**3       RATES FOR THIS TIME STEP      L**3/T
     ------------------                 ------------------------

           IN:                                      IN:
           ---                                      ---
               AG WELLS  =  1203775104.0000                 AG WELLS  =           0.0000
      DIVERSION SEGMENTS =           0.0000        DIVERSION SEGMENTS =           0.0000
       IRRIGATION PONDS  =           0.0000         IRRIGATION PONDS  =           0.0000
           GW IRRIGATION =           0.0000             GW IRRIGATION =           0.0000
           SW IRRIGATION =           0.0000             SW IRRIGATION =           0.0000
        SYSTEM LOSSES GW =           0.0000          SYSTEM LOSSES GW =           0.0000
        SYSTEM LOSSES SW =           0.0000          SYSTEM LOSSES SW =           0.0000

                TOTAL IN =  1203775104.0000                  TOTAL IN =           0.0000

          OUT:                                     OUT:
          ----                                     ----
               AG WELLS  =           0.0000                 AG WELLS  =           0.0000
      DIVERSION SEGMENTS =           0.0000        DIVERSION SEGMENTS =           0.0000
       IRRIGATION PONDS  =           0.0000         IRRIGATION PONDS  =           0.0000
           GW IRRIGATION =  1203775104.0000             GW IRRIGATION =           0.0000
           SW IRRIGATION =           0.0000             SW IRRIGATION =           0.0000
        SYSTEM LOSSES GW =           0.0000          SYSTEM LOSSES GW =           0.0000
        SYSTEM LOSSES SW =           0.0000          SYSTEM LOSSES SW =           0.0000

               TOTAL OUT =  1203775104.0000                 TOTAL OUT =           0.0000

                IN - OUT =           0.0000                  IN - OUT =           0.0000

     PERCENT DISCREPANCY =           0.00         PERCENT DISCREPANCY =           0.00



1
  VOLUMETRIC BUDGET FOR ENTIRE MODEL AT END OF TIME STEP   30, STRESS PERIOD  39
  ------------------------------------------------------------------------------

     CUMULATIVE VOLUMES      L**3       RATES FOR THIS TIME STEP      L**3/T
     ------------------                 ------------------------

           IN:                                      IN:
           ---                                      ---
             STORAGE     =  1636098944.0000               STORAGE     =           4.4287
       CONSTANT HEAD     =           0.0000         CONSTANT HEAD     =           0.0000
     HEAD DEP BOUNDS     =    28866798.0000       HEAD DEP BOUNDS     =           0.2902
      STREAM LEAKAGE     =  1204203136.0000        STREAM LEAKAGE     =          12.6458
        UZF RECHARGE     =       73223.9531          UZF RECHARGE     =           0.0000
               GW ET     =           0.0000                 GW ET     =           0.0000
     SURFACE LEAKAGE     =           0.0000       SURFACE LEAKAGE     =           0.0000
           AG WELLS      =           0.0000             AG WELLS      =           0.0000

                TOTAL IN =  2869242112.0000                  TOTAL IN =          17.3647

          OUT:                                     OUT:
          ----                                     ----
             STORAGE     =   660364736.0000               STORAGE     =           8.6503
       CONSTANT HEAD     =           0.0000         CONSTANT HEAD     =           0.0000
     HEAD DEP BOUNDS     =    28879116.0000       HEAD DEP BOUNDS     =           0.2867
      STREAM LEAKAGE     =   976229312.0000        STREAM LEAKAGE     =           8.4289
        UZF RECHARGE     =           0.0000          UZF RECHARGE     =           0.0000
               GW ET     =           0.0000                 GW ET     =           0.0000
     SURFACE LEAKAGE     =           0.0000       SURFACE LEAKAGE     =           0.0000
           AG WELLS      =  1203775104.0000             AG WELLS      =           0.0000

               TOTAL OUT =  2869248256.0000                 TOTAL OUT =          17.3659

                IN - OUT =       -6144.0000                  IN - OUT =      -1.2016E-03

     PERCENT DISCREPANCY =          -0.00         PERCENT DISCREPANCY =          -0.01






         TIME SUMMARY AT END OF TIME STEP   30 IN STRESS PERIOD   39
                    SECONDS     MINUTES      HOURS       DAYS        YEARS
                    -----------------------------------------------------------
   TIME STEP LENGTH  87667.      1461.1      24.352      1.0147     2.77799E-03
 STRESS PERIOD TIME 2.63000E+06  43833.      730.56      30.440     8.33397E-02
         TOTAL TIME 1.00026E+08 1.66710E+06  27785.      1157.7      3.1696    
1
1
                            STRESS PERIOD NO.   40, LENGTH =   2630000.    
                            -----------------------------------------------

                              NUMBER OF TIME STEPS =    30

                               MULTIPLIER FOR DELT =     1.000

                            INITIAL TIME STEP SIZE =   87666.66    

 REUSING NON-PARAMETER GHB CELLS FROM LAST STRESS PERIOD

      2 GHB CELLS

 REUSING STREAM SEGMENT DATA FROM LAST STRESS PERIOD



            AREAL INFILTRATION RATE
 READING ON UNIT   19 WITH FORMAT: (FREE)              

            1           2           3           4           5           6           7           8           9          10
 ........................................................................................................................
   1   1.0000E-10  2.0000E-10   0.000       0.000       0.000       0.000       0.000       0.000       0.000       0.000    
   2   2.0000E-10  1.0000E-10  2.0000E-10   0.000       0.000      8.0000E-10  8.0000E-10  5.0000E-10   0.000       0.000    
   3    0.000      5.0000E-10  1.0000E-10  1.0000E-10  8.0000E-10  8.0000E-10  5.0000E-10  5.0000E-10   0.000       0.000    
   4   8.0000E-10  5.0000E-10  1.0000E-10  1.0000E-10  1.0000E-10  1.0000E-10  1.0000E-10  1.0000E-10  2.0000E-10   0.000    
   5   8.0000E-10  5.0000E-10  1.0000E-10  1.0000E-10  1.0000E-10  1.0000E-10  1.0000E-10  1.0000E-10  1.0000E-10  1.0000E-10
   6   8.0000E-10  5.0000E-10  5.0000E-10  2.0000E-10  2.0000E-10  1.0000E-10  1.0000E-10  1.0000E-10  1.0000E-10  5.0000E-10
   7   8.0000E-10  5.0000E-10  5.0000E-10  2.0000E-10  2.0000E-10  1.0000E-10  1.0000E-10  2.0000E-10  2.0000E-10   0.000    
   8    0.000      5.0000E-10  5.0000E-10  2.0000E-10  2.0000E-10  1.0000E-10  1.0000E-10  2.0000E-10  5.0000E-10   0.000    
   9    0.000      5.0000E-10  5.0000E-10  2.0000E-10  2.0000E-10  1.0000E-10  1.0000E-10  2.0000E-10  5.0000E-10   0.000    
  10    0.000      5.0000E-10  5.0000E-10  2.0000E-10  2.0000E-10  1.0000E-10  1.0000E-10  2.0000E-10  5.0000E-10  8.0000E-10
  11    0.000      1.0000E-10  1.0000E-10  1.0000E-10  1.0000E-10  1.0000E-10  1.0000E-10  2.0000E-10  5.0000E-10   0.000    
  12   1.0000E-10  1.0000E-10  1.0000E-10  1.0000E-10  1.0000E-10  1.0000E-10  1.0000E-10  1.0000E-10  2.0000E-10   0.000    
  13   1.0000E-10  1.0000E-10  2.0000E-10  2.0000E-10  2.0000E-10  2.0000E-10  2.0000E-10  1.0000E-10  1.0000E-10   0.000    
  14    0.000      2.0000E-10  5.0000E-10  5.0000E-10  5.0000E-10  5.0000E-10  5.0000E-10  2.0000E-10  1.0000E-10   0.000    
  15    0.000       0.000      8.0000E-10  8.0000E-10  8.0000E-10  8.0000E-10   0.000       0.000       0.000       0.000    

                  ET RATE =  5.000000E-10

 USING ET EXTINCTION DEPTH FROM PREVIOUS STRESS PERIOD. CURRENT PERIOD IS:      40

 USING EXTINCTION WATER CONTENT FROM PREVIOUS STRESS PERIOD. CURRENT PERIOD IS:      40

 USING AIR ENTRY PRESSURE FROM PREVIOUS STRESS PERIOD. CURRENT PERIOD IS:      40

 USING ROOT PRESSURE HEAD FROM PREVIOUS STRESS PERIOD. CURRENT PERIOD IS:      40

 USING ROOT ACTIVITY FROM PREVIOUS STRESS PERIOD. CURRENT PERIOD IS:      40

 PROCESSING AG STRESS PERIOD DATA

 READING AG STRESS PERIOD DATA

 READING IRRIGATION SEGMENT

 READING IRRIGATION WELL

 READING SUPPLEMENTAL WELL

 NO IRRPOND OR REUSING IRRPOND DATA FROM LAST STRESS PERIOD

 END PROCESSING AG STRESS PERIOD DATA OPTIONS
 
 SOLVING FOR HEAD 
                                                   Max.-Head-Change                         Max.-Flux-Residual
  Residual-Control   Outer-Iter.   Inner-Iter.     Column Row Layer    Maximum-Head-Change  Column Row Layer    Maximum-Flux-Residual          L2-NORM 
          0                 1           2             4    7     1       0.1427213507E-01       4    7    1         0.7474532784E+00      0.2285114398E+01
          0                 2           2             4    7     1      -0.1388293325E-02       4    7    1        -0.7474558052E-01      0.2269294109E+00
          0                 3           1             4    7     1       0.9453759303E-04       4    7    1         0.5232190499E-02      0.1574080346E-01

    ------------------------------------------------
       NWT REQUIRED            3 OUTER ITERATIONS 
       AND A TOTAL OF          5 INNER ITERATIONS.
    ------------------------------------------------

 NO OUTPUT CONTROL FOR STRESS PERIOD   40   TIME STEP    1
 
 SOLVING FOR HEAD 
                                                   Max.-Head-Change                         Max.-Flux-Residual
  Residual-Control   Outer-Iter.   Inner-Iter.     Column Row Layer    Maximum-Head-Change  Column Row Layer    Maximum-Flux-Residual          L2-NORM 
          0                 1           2             4    7     1       0.1416022627E-01       4    7    1         0.7415495438E+00      0.2232837630E+01
          0                 2           2             4    7     1      -0.1377407573E-02       4    7    1        -0.7415520183E-01      0.2219147283E+00
          0                 3           1             4    7     1       0.9379631495E-04       4    7    1         0.5190864033E-02      0.1540945129E-01

    ------------------------------------------------
       NWT REQUIRED            3 OUTER ITERATIONS 
       AND A TOTAL OF          5 INNER ITERATIONS.
    ------------------------------------------------

 NO OUTPUT CONTROL FOR STRESS PERIOD   40   TIME STEP    2
 
 SOLVING FOR HEAD 
                                                   Max.-Head-Change                         Max.-Flux-Residual
  Residual-Control   Outer-Iter.   Inner-Iter.     Column Row Layer    Maximum-Head-Change  Column Row Layer    Maximum-Flux-Residual          L2-NORM 
          0                 1           2             4    7     1       0.1404994430E-01       4    7    1         0.7357326617E+00      0.2186521394E+01
          0                 2           2             4    7     1      -0.1366680068E-02       4    7    1        -0.7357350854E-01      0.2174694452E+00
          0                 3           1             4    7     1       0.9306581272E-04       4    7    1         0.5150145537E-02      0.1511486700E-01

    ------------------------------------------------
       NWT REQUIRED            3 OUTER ITERATIONS 
       AND A TOTAL OF          5 INNER ITERATIONS.
    ------------------------------------------------

 NO OUTPUT CONTROL FOR STRESS PERIOD   40   TIME STEP    3
 
 SOLVING FOR HEAD 
                                                   Max.-Head-Change                         Max.-Flux-Residual
  Residual-Control   Outer-Iter.   Inner-Iter.     Column Row Layer    Maximum-Head-Change  Column Row Layer    Maximum-Flux-Residual          L2-NORM 
          0                 1           2             4    7     1       0.1394124844E-01       4    7    1         0.7300001271E+00      0.2145360675E+01
          0                 2           2             4    7     1      -0.1356106852E-02       4    7    1        -0.7300025014E-01      0.2135156153E+00
          0                 3           1             4    7     1       0.9234581642E-04       4    7    1         0.5110017459E-02      0.1485285331E-01

    ------------------------------------------------
       NWT REQUIRED            3 OUTER ITERATIONS 
       AND A TOTAL OF          5 INNER ITERATIONS.
    ------------------------------------------------

 NO OUTPUT CONTROL FOR STRESS PERIOD   40   TIME STEP    4
 
 SOLVING FOR HEAD 
                                                   Max.-Head-Change                         Max.-Flux-Residual
  Residual-Control   Outer-Iter.   Inner-Iter.     Column Row Layer    Maximum-Head-Change  Column Row Layer    Maximum-Flux-Residual          L2-NORM 
          0                 1           2             4    7     1       0.1383422952E-01       4    7    1         0.7243571155E+00      0.2108646986E+01
          0                 2           2             4    7     1      -0.1345696758E-02       4    7    1        -0.7243594419E-01      0.2099849330E+00
          0                 3           1             4    7     1       0.9163692826E-04       4    7    1         0.5070516078E-02      0.1461874028E-01

    ------------------------------------------------
       NWT REQUIRED            3 OUTER ITERATIONS 
       AND A TOTAL OF          5 INNER ITERATIONS.
    ------------------------------------------------

 NO OUTPUT CONTROL FOR STRESS PERIOD   40   TIME STEP    5
 
 SOLVING FOR HEAD 
                                                   Max.-Head-Change                         Max.-Flux-Residual
  Residual-Control   Outer-Iter.   Inner-Iter.     Column Row Layer    Maximum-Head-Change  Column Row Layer    Maximum-Flux-Residual          L2-NORM 
          0                 1           2             4    7     1       0.1372870705E-01       4    7    1         0.7187937641E+00      0.2075757571E+01
          0                 2           2             4    7     1      -0.1335432230E-02       4    7    1        -0.7187960437E-01      0.2068174812E+00
          0                 3           1             4    7     1       0.9093795280E-04       4    7    1         0.5031572327E-02      0.1440834526E-01

    ------------------------------------------------
       NWT REQUIRED            3 OUTER ITERATIONS 
       AND A TOTAL OF          5 INNER ITERATIONS.
    ------------------------------------------------

 NO OUTPUT CONTROL FOR STRESS PERIOD   40   TIME STEP    6
 
 SOLVING FOR HEAD 
                                                   Max.-Head-Change                         Max.-Flux-Residual
  Residual-Control   Outer-Iter.   Inner-Iter.     Column Row Layer    Maximum-Head-Change  Column Row Layer    Maximum-Flux-Residual          L2-NORM 
          0                 1           2             4    7     1       0.1362477475E-01       4    7    1         0.7133152868E+00      0.2046163219E+01
          0                 2           2             4    7     1      -0.1325322385E-02       4    7    1        -0.7133175211E-01      0.2039601115E+00
          0                 3           1             4    7     1       0.9024951072E-04       4    7    1         0.4993222698E-02      0.1421735249E-01

    ------------------------------------------------
       NWT REQUIRED            3 OUTER ITERATIONS 
       AND A TOTAL OF          5 INNER ITERATIONS.
    ------------------------------------------------

 NO OUTPUT CONTROL FOR STRESS PERIOD   40   TIME STEP    7
 
 SOLVING FOR HEAD 
                                                   Max.-Head-Change                         Max.-Flux-Residual
  Residual-Control   Outer-Iter.   Inner-Iter.     Column Row Layer    Maximum-Head-Change  Column Row Layer    Maximum-Flux-Residual          L2-NORM 
          0                 1           2             4    7     1       0.1352226146E-01       4    7    1         0.7079119711E+00      0.2019416540E+01
          0                 2           2             4    7     1      -0.1315350571E-02       4    7    1        -0.7079141614E-01      0.2013792346E+00
          0                 3           1             4    7     1       0.8957046777E-04       4    7    1         0.4955399196E-02      0.1404537315E-01

    ------------------------------------------------
       NWT REQUIRED            3 OUTER ITERATIONS 
       AND A TOTAL OF          5 INNER ITERATIONS.
    ------------------------------------------------

 NO OUTPUT CONTROL FOR STRESS PERIOD   40   TIME STEP    8
 
 SOLVING FOR HEAD 
                                                   Max.-Head-Change                         Max.-Flux-Residual
  Residual-Control   Outer-Iter.   Inner-Iter.     Column Row Layer    Maximum-Head-Change  Column Row Layer    Maximum-Flux-Residual          L2-NORM 
          0                 1           2             4    7     1       0.1342112546E-01       4    7    1         0.7025822281E+00      0.1995104446E+01
          0                 2           2             4    7     1      -0.1305512733E-02       4    7    1        -0.7025843755E-01      0.1990263981E+00
          0                 3           1             4    7     1       0.8890054798E-04       4    7    1         0.4918090722E-02      0.1388772863E-01

    ------------------------------------------------
       NWT REQUIRED            3 OUTER ITERATIONS 
       AND A TOTAL OF          5 INNER ITERATIONS.
    ------------------------------------------------

 NO OUTPUT CONTROL FOR STRESS PERIOD   40   TIME STEP    9
 
 SOLVING FOR HEAD 
                                                   Max.-Head-Change                         Max.-Flux-Residual
  Residual-Control   Outer-Iter.   Inner-Iter.     Column Row Layer    Maximum-Head-Change  Column Row Layer    Maximum-Flux-Residual          L2-NORM 
          0                 1           2             4    7     1       0.1332146887E-01       4    7    1         0.6973311818E+00      0.1972898453E+01
          0                 2           2             4    7     1      -0.1295818803E-02       4    7    1        -0.6973332875E-01      0.1968728028E+00
          0                 3           1             4    7     1       0.8824042848E-04       4    7    1         0.4881333139E-02      0.1374298056E-01

    ------------------------------------------------
       NWT REQUIRED            3 OUTER ITERATIONS 
       AND A TOTAL OF          5 INNER ITERATIONS.
    ------------------------------------------------

 NO OUTPUT CONTROL FOR STRESS PERIOD   40   TIME STEP   10
 
 SOLVING FOR HEAD 
                                                   Max.-Head-Change                         Max.-Flux-Residual
  Residual-Control   Outer-Iter.   Inner-Iter.     Column Row Layer    Maximum-Head-Change  Column Row Layer    Maximum-Flux-Residual          L2-NORM 
          0                 1           2             4    7     1       0.1322325278E-01       4    7    1         0.6921568401E+00      0.1952505447E+01
          0                 2           2             4    7     1      -0.1286264995E-02       4    7    1        -0.6921589054E-01      0.1948915678E+00
          0                 3           1             4    7     1       0.8758985010E-04       4    7    1         0.4845112484E-02      0.1360956085E-01

    ------------------------------------------------
       NWT REQUIRED            3 OUTER ITERATIONS 
       AND A TOTAL OF          5 INNER ITERATIONS.
    ------------------------------------------------

 NO OUTPUT CONTROL FOR STRESS PERIOD   40   TIME STEP   11
 
 SOLVING FOR HEAD 
                                                   Max.-Head-Change                         Max.-Flux-Residual
  Residual-Control   Outer-Iter.   Inner-Iter.     Column Row Layer    Maximum-Head-Change  Column Row Layer    Maximum-Flux-Residual          L2-NORM 
          0                 1           2             4    7     1       0.1312630542E-01       4    7    1         0.6870498989E+00      0.1933678098E+01
          0                 2           2             4    7     1      -0.1276834601E-02       4    7    1        -0.6870519247E-01      0.1930585131E+00
          0                 3           1             4    7     1       0.8694767564E-04       4    7    1         0.4809363636E-02      0.1348592059E-01

    ------------------------------------------------
       NWT REQUIRED            3 OUTER ITERATIONS 
       AND A TOTAL OF          5 INNER ITERATIONS.
    ------------------------------------------------

 NO OUTPUT CONTROL FOR STRESS PERIOD   40   TIME STEP   12
 
 SOLVING FOR HEAD 
                                                   Max.-Head-Change                         Max.-Flux-Residual
  Residual-Control   Outer-Iter.   Inner-Iter.     Column Row Layer    Maximum-Head-Change  Column Row Layer    Maximum-Flux-Residual          L2-NORM 
          0                 1           2             4    7     1       0.1303059930E-01       4    7    1         0.6820087384E+00      0.1916199675E+01
          0                 2           2             4    7     1      -0.1267524949E-02       4    7    1        -0.6820107256E-01      0.1913533601E+00
          0                 3           1             4    7     1       0.8631372391E-04       4    7    1         0.4774075285E-02      0.1337012261E-01

    ------------------------------------------------
       NWT REQUIRED            3 OUTER ITERATIONS 
       AND A TOTAL OF          5 INNER ITERATIONS.
    ------------------------------------------------

 NO OUTPUT CONTROL FOR STRESS PERIOD   40   TIME STEP   13
 
 SOLVING FOR HEAD 
                                                   Max.-Head-Change                         Max.-Flux-Residual
  Residual-Control   Outer-Iter.   Inner-Iter.     Column Row Layer    Maximum-Head-Change  Column Row Layer    Maximum-Flux-Residual          L2-NORM 
          0                 1           2             4    7     1       0.1293623468E-01       4    7    1         0.6770392217E+00      0.1899891472E+01
          0                 2           2             4    7     1      -0.1258345789E-02       4    7    1        -0.6770411717E-01      0.1897589669E+00
          0                 3           1             4    7     1       0.8568865726E-04       4    7    1         0.4739288397E-02      0.1326219596E-01

    ------------------------------------------------
       NWT REQUIRED            3 OUTER ITERATIONS 
       AND A TOTAL OF          5 INNER ITERATIONS.
    ------------------------------------------------

 NO OUTPUT CONTROL FOR STRESS PERIOD   40   TIME STEP   14
 
 SOLVING FOR HEAD 
                                                   Max.-Head-Change                         Max.-Flux-Residual
  Residual-Control   Outer-Iter.   Inner-Iter.     Column Row Layer    Maximum-Head-Change  Column Row Layer    Maximum-Flux-Residual          L2-NORM 
          0                 1           2             4    7     1       0.1284318355E-01       4    7    1         0.6721392596E+00      0.1884602216E+01
          0                 2           2             4    7     1      -0.1249294397E-02       4    7    1        -0.6721411731E-01      0.1882622331E+00
          0                 3           1             4    7     1       0.8507229154E-04       4    7    1         0.4704988433E-02      0.1316032251E-01

    ------------------------------------------------
       NWT REQUIRED            3 OUTER ITERATIONS 
       AND A TOTAL OF          5 INNER ITERATIONS.
    ------------------------------------------------

 NO OUTPUT CONTROL FOR STRESS PERIOD   40   TIME STEP   15
 
 SOLVING FOR HEAD 
                                                   Max.-Head-Change                         Max.-Flux-Residual
  Residual-Control   Outer-Iter.   Inner-Iter.     Column Row Layer    Maximum-Head-Change  Column Row Layer    Maximum-Flux-Residual          L2-NORM 
          0                 1           2             4    7     1       0.1275127440E-01       4    7    1         0.6673001115E+00      0.1870194132E+01
          0                 2           2             4    7     1      -0.1240354091E-02       4    7    1        -0.6673019895E-01      0.1868486271E+00
          0                 3           1             4    7     1       0.8446349049E-04       4    7    1         0.4671114162E-02      0.1306366407E-01

    ------------------------------------------------
       NWT REQUIRED            3 OUTER ITERATIONS 
       AND A TOTAL OF          5 INNER ITERATIONS.
    ------------------------------------------------

 NO OUTPUT CONTROL FOR STRESS PERIOD   40   TIME STEP   16
 
 SOLVING FOR HEAD 
                                                   Max.-Head-Change                         Max.-Flux-Residual
  Residual-Control   Outer-Iter.   Inner-Iter.     Column Row Layer    Maximum-Head-Change  Column Row Layer    Maximum-Flux-Residual          L2-NORM 
          0                 1           2             4    7     1       0.1266062101E-01       4    7    1         0.6625274612E+00      0.1856560626E+01
          0                 2           2             4    7     1      -0.1231535936E-02       4    7    1        -0.6625293045E-01      0.1855088034E+00
          0                 3           1             4    7     1       0.8386300733E-04       4    7    1         0.4637705381E-02      0.1297222765E-01

    ------------------------------------------------
       NWT REQUIRED            3 OUTER ITERATIONS 
       AND A TOTAL OF          5 INNER ITERATIONS.
    ------------------------------------------------

 NO OUTPUT CONTROL FOR STRESS PERIOD   40   TIME STEP   17
 
 SOLVING FOR HEAD 
                                                   Max.-Head-Change                         Max.-Flux-Residual
  Residual-Control   Outer-Iter.   Inner-Iter.     Column Row Layer    Maximum-Head-Change  Column Row Layer    Maximum-Flux-Residual          L2-NORM 
          0                 1           2             4    7     1       0.1257118902E-01       4    7    1         0.6578199196E+00      0.1843606268E+01
          0                 2           2             4    7     1      -0.1222836593E-02       4    7    1        -0.6578217293E-01      0.1842332420E+00
          0                 3           1             4    7     1       0.8327061520E-04       4    7    1         0.4604752399E-02      0.1288505872E-01

    ------------------------------------------------
       NWT REQUIRED            3 OUTER ITERATIONS 
       AND A TOTAL OF          5 INNER ITERATIONS.
    ------------------------------------------------

 NO OUTPUT CONTROL FOR STRESS PERIOD   40   TIME STEP   18
 
 SOLVING FOR HEAD 
                                                   Max.-Head-Change                         Max.-Flux-Residual
  Residual-Control   Outer-Iter.   Inner-Iter.     Column Row Layer    Maximum-Head-Change  Column Row Layer    Maximum-Flux-Residual          L2-NORM 
          0                 1           2             4    7     1       0.1248281771E-01       4    7    1         0.6531684172E+00      0.1831243427E+01
          0                 2           2             4    7     1      -0.1214240425E-02       4    7    1        -0.6531701941E-01      0.1830145041E+00
          0                 3           1             4    7     1       0.8268524800E-04       4    7    1         0.4572191651E-02      0.1280118183E-01

    ------------------------------------------------
       NWT REQUIRED            3 OUTER ITERATIONS 
       AND A TOTAL OF          5 INNER ITERATIONS.
    ------------------------------------------------

 NO OUTPUT CONTROL FOR STRESS PERIOD   40   TIME STEP   19
 
 SOLVING FOR HEAD 
                                                   Max.-Head-Change                         Max.-Flux-Residual
  Residual-Control   Outer-Iter.   Inner-Iter.     Column Row Layer    Maximum-Head-Change  Column Row Layer    Maximum-Flux-Residual          L2-NORM 
          0                 1           2             4    7     1       0.1239561590E-01       4    7    1         0.6485791974E+00      0.1819398796E+01
          0                 2           2             4    7     1      -0.1205758019E-02       4    7    1        -0.6485809423E-01      0.1818446215E+00
          0                 3           1             4    7     1       0.8210762865E-04       4    7    1         0.4540066922E-02      0.1272020983E-01

    ------------------------------------------------
       NWT REQUIRED            3 OUTER ITERATIONS 
       AND A TOTAL OF          5 INNER ITERATIONS.
    ------------------------------------------------

 NO OUTPUT CONTROL FOR STRESS PERIOD   40   TIME STEP   20
 
 SOLVING FOR HEAD 
                                                   Max.-Head-Change                         Max.-Flux-Residual
  Residual-Control   Outer-Iter.   Inner-Iter.     Column Row Layer    Maximum-Head-Change  Column Row Layer    Maximum-Flux-Residual          L2-NORM 
          0                 1           2             4    7     1       0.1230955788E-01       4    7    1         0.6440506143E+00      0.1808023205E+01
          0                 2           2             4    7     1      -0.1197386874E-02       4    7    1        -0.6440523280E-01      0.1807200663E+00
          0                 3           1             4    7     1       0.8153758475E-04       4    7    1         0.4508366635E-02      0.1264279910E-01

    ------------------------------------------------
       NWT REQUIRED            3 OUTER ITERATIONS 
       AND A TOTAL OF          5 INNER ITERATIONS.
    ------------------------------------------------

 NO OUTPUT CONTROL FOR STRESS PERIOD   40   TIME STEP   21
 
 SOLVING FOR HEAD 
                                                   Max.-Head-Change                         Max.-Flux-Residual
  Residual-Control   Outer-Iter.   Inner-Iter.     Column Row Layer    Maximum-Head-Change  Column Row Layer    Maximum-Flux-Residual          L2-NORM 
          0                 1           2             4    7     1       0.1222448326E-01       4    7    1         0.6395740457E+00      0.1797055425E+01
          0                 2           2             4    7     1      -0.1189111388E-02       4    7    1        -0.6395757288E-01      0.1796341250E+00
          0                 3           1             4    7     1       0.8097405492E-04       4    7    1         0.4477030429E-02      0.1256778573E-01

    ------------------------------------------------
       NWT REQUIRED            3 OUTER ITERATIONS 
       AND A TOTAL OF          5 INNER ITERATIONS.
    ------------------------------------------------

 NO OUTPUT CONTROL FOR STRESS PERIOD   40   TIME STEP   22
 
 SOLVING FOR HEAD 
                                                   Max.-Head-Change                         Max.-Flux-Residual
  Residual-Control   Outer-Iter.   Inner-Iter.     Column Row Layer    Maximum-Head-Change  Column Row Layer    Maximum-Flux-Residual          L2-NORM 
          0                 1           2             4    7     1       0.1214064089E-01       4    7    1         0.6351630431E+00      0.1786458129E+01
          0                 2           2             4    7     1      -0.1180955767E-02       4    7    1        -0.6351646966E-01      0.1785842058E+00
          0                 3           1             4    7     1       0.8041868831E-04       4    7    1         0.4446153237E-02      0.1249519063E-01

    ------------------------------------------------
       NWT REQUIRED            3 OUTER ITERATIONS 
       AND A TOTAL OF          5 INNER ITERATIONS.
    ------------------------------------------------

 NO OUTPUT CONTROL FOR STRESS PERIOD   40   TIME STEP   23
 
 SOLVING FOR HEAD 
                                                   Max.-Head-Change                         Max.-Flux-Residual
  Residual-Control   Outer-Iter.   Inner-Iter.     Column Row Layer    Maximum-Head-Change  Column Row Layer    Maximum-Flux-Residual          L2-NORM 
          0                 1           2             4    7     1       0.1205759400E-01       4    7    1         0.6307940623E+00      0.1776190120E+01
          0                 2           2             4    7     1      -0.1172877526E-02       4    7    1        -0.6307956866E-01      0.1775654281E+00
          0                 3           1             4    7     1       0.7986859004E-04       4    7    1         0.4415570166E-02      0.1242469467E-01

    ------------------------------------------------
       NWT REQUIRED            3 OUTER ITERATIONS 
       AND A TOTAL OF          5 INNER ITERATIONS.
    ------------------------------------------------

 NO OUTPUT CONTROL FOR STRESS PERIOD   40   TIME STEP   24
 
 SOLVING FOR HEAD 
                                                   Max.-Head-Change                         Max.-Flux-Residual
  Residual-Control   Outer-Iter.   Inner-Iter.     Column Row Layer    Maximum-Head-Change  Column Row Layer    Maximum-Flux-Residual          L2-NORM 
          0                 1           2             4    7     1       0.1197573850E-01       4    7    1         0.6264881938E+00      0.1766222336E+01
          0                 2           2             4    7     1      -0.1164915176E-02       4    7    1        -0.6264897899E-01      0.1765757862E+00
          0                 3           1             4    7     1       0.7932638448E-04       4    7    1         0.4385428925E-02      0.1235602195E-01

    ------------------------------------------------
       NWT REQUIRED            3 OUTER ITERATIONS 
       AND A TOTAL OF          5 INNER ITERATIONS.
    ------------------------------------------------

 NO OUTPUT CONTROL FOR STRESS PERIOD   40   TIME STEP   25
 
 SOLVING FOR HEAD 
                                                   Max.-Head-Change                         Max.-Flux-Residual
  Residual-Control   Outer-Iter.   Inner-Iter.     Column Row Layer    Maximum-Head-Change  Column Row Layer    Maximum-Flux-Residual          L2-NORM 
          0                 1           2             4    7     1       0.1189490506E-01       4    7    1         0.6222368080E+00      0.1756521151E+01
          0                 2           2             4    7     1      -0.1157060410E-02       4    7    1        -0.6222383766E-01      0.1756194976E+00
          0                 3           1             4    7     1       0.7879150406E-04       4    7    1         0.4355669028E-02      0.1228598538E-01

    ------------------------------------------------
       NWT REQUIRED            3 OUTER ITERATIONS 
       AND A TOTAL OF          5 INNER ITERATIONS.
    ------------------------------------------------

 NO OUTPUT CONTROL FOR STRESS PERIOD   40   TIME STEP   26
 
 SOLVING FOR HEAD 
                                                   Max.-Head-Change                         Max.-Flux-Residual
  Residual-Control   Outer-Iter.   Inner-Iter.     Column Row Layer    Maximum-Head-Change  Column Row Layer    Maximum-Flux-Residual          L2-NORM 
          0                 1           2             4    7     1       0.1181490518E-01       4    7    1         0.6180306902E+00      0.1747057481E+01
          0                 2           2             4    7     1      -0.1149270400E-02       4    7    1        -0.6180322319E-01      0.1746707491E+00
          0                 3           1             4    7     1       0.7826103347E-04       4    7    1         0.4326226031E-02      0.1222375509E-01

    ------------------------------------------------
       NWT REQUIRED            3 OUTER ITERATIONS 
       AND A TOTAL OF          5 INNER ITERATIONS.
    ------------------------------------------------

 NO OUTPUT CONTROL FOR STRESS PERIOD   40   TIME STEP   27
 
 SOLVING FOR HEAD 
                                                   Max.-Head-Change                         Max.-Flux-Residual
  Residual-Control   Outer-Iter.   Inner-Iter.     Column Row Layer    Maximum-Head-Change  Column Row Layer    Maximum-Flux-Residual          L2-NORM 
          0                 1           2             4    7     1       0.1173588215E-01       4    7    1         0.6138759478E+00      0.1737806737E+01
          0                 2           2             4    7     1      -0.1141583575E-02       4    7    1        -0.6138774635E-01      0.1737502434E+00
          0                 3           1             4    7     1       0.7773758970E-04       4    7    1         0.4297142675E-02      0.1215980140E-01

    ------------------------------------------------
       NWT REQUIRED            3 OUTER ITERATIONS 
       AND A TOTAL OF          5 INNER ITERATIONS.
    ------------------------------------------------

 NO OUTPUT CONTROL FOR STRESS PERIOD   40   TIME STEP   28
 
 SOLVING FOR HEAD 
                                                   Max.-Head-Change                         Max.-Flux-Residual
  Residual-Control   Outer-Iter.   Inner-Iter.     Column Row Layer    Maximum-Head-Change  Column Row Layer    Maximum-Flux-Residual          L2-NORM 
          0                 1           2             4    7     1       0.1165781167E-01       4    7    1         0.6097714202E+00      0.1728769448E+01
          0                 2           2             4    7     1      -0.1133989408E-02       4    7    1        -0.6097729103E-01      0.1728504769E+00
          0                 3           1             4    7     1       0.7722045564E-04       4    7    1         0.4268410802E-02      0.1209717790E-01

    ------------------------------------------------
       NWT REQUIRED            3 OUTER ITERATIONS 
       AND A TOTAL OF          5 INNER ITERATIONS.
    ------------------------------------------------

 NO OUTPUT CONTROL FOR STRESS PERIOD   40   TIME STEP   29
 
 SOLVING FOR HEAD 
                                                   Max.-Head-Change                         Max.-Flux-Residual
  Residual-Control   Outer-Iter.   Inner-Iter.     Column Row Layer    Maximum-Head-Change  Column Row Layer    Maximum-Flux-Residual          L2-NORM 
          0                 1           2             4    7     1       0.1158054114E-01       4    7    1         0.6057089896E+00      0.1719919735E+01
          0                 2           2             4    7     1      -0.1126473055E-02       4    7    1        -0.6057104546E-01      0.1719688741E+00
          0                 3           1             4    7     1       0.7670861999E-04       4    7    1         0.4239973621E-02      0.1203567487E-01

    ------------------------------------------------
       NWT REQUIRED            3 OUTER ITERATIONS 
       AND A TOTAL OF          5 INNER ITERATIONS.
    ------------------------------------------------

 NO OUTPUT CONTROL FOR STRESS PERIOD   40   TIME STEP   30



 STREAM LISTING     PERIOD     40   STEP       30

 LAYER ROW COL. STREAM  RCH.  FLOW INTO     FLOW TO   FLOW OUT OF   OVRLND.     DIRECT     STREAM       STREAM     STREAM     STREAM   STREAMBED  STREAMBED
                SEG.NO.  NO.  STRM. RCH.    AQUIFER    STRM. RCH.    RUNOFF     PRECIP       ET          HEAD       DEPTH      WIDTH   CONDCTNC.   GRADIENT

   1    1    1     1     1    3.6749E+01  2.9261E-01   3.6456E+01  0.000E+00  0.000E+00  0.000E+00  1.09435E+03  1.306E+00  1.510E+01  6.795E-02  1.435E+00
   1    2    2     1     2    3.6456E+01  4.5309E-01   3.6003E+01  0.000E+00  0.000E+00  0.000E+00  1.08936E+03  1.303E+00  1.504E+01  1.053E-01  1.434E+00
   1    3    3     1     3    3.6003E+01  3.8635E-01   3.5617E+01  0.000E+00  0.000E+00  0.000E+00  1.08372E+03  1.300E+00  1.497E+01  8.985E-02  1.433E+00
   1    3    4     1     4    3.5617E+01  3.5571E-01   3.5261E+01  0.000E+00  0.000E+00  0.000E+00  1.07870E+03  1.297E+00  1.492E+01  8.278E-02  1.432E+00
   1    4    5     2     1    3.3261E+01  3.4544E-01   3.2916E+01  0.000E+00  0.000E+00  0.000E+00  1.07336E+03  1.429E+00  1.200E+01  7.800E-02  1.476E+00
   1    5    6     2     2    3.2916E+01  2.6525E-01   3.2650E+01  0.000E+00  0.000E+00  0.000E+00  1.06793E+03  1.421E+00  1.200E+01  6.000E-02  1.474E+00
   1    6    6     2     3    3.2650E+01  2.6483E-01   3.2386E+01  0.000E+00  0.000E+00  0.000E+00  1.06321E+03  1.414E+00  1.200E+01  6.000E-02  1.471E+00
   1    7    6     2     4    3.2386E+01  2.6442E-01   3.2121E+01  0.000E+00  0.000E+00  0.000E+00  1.05848E+03  1.407E+00  1.200E+01  6.000E-02  1.469E+00
   1    8    6     2     5    3.2121E+01  2.6400E-01   3.1857E+01  0.000E+00  0.000E+00  0.000E+00  1.05376E+03  1.400E+00  1.200E+01  6.000E-02  1.467E+00
   1    3    5     3     1    2.0000E+00  2.8252E-01   1.7175E+00  0.000E+00  0.000E+00  0.000E+00  1.07555E+03  1.909E+00  9.636E+00  7.227E-02  1.955E+00
   1    3    6     3     2    1.7175E+00  2.4905E-01   1.4684E+00  0.000E+00  0.000E+00  0.000E+00  1.07264E+03  1.727E+00  8.909E+00  6.682E-02  1.864E+00
   1    3    7     3     3    1.4684E+00  1.9718E-01   1.2712E+00  0.000E+00  0.000E+00  0.000E+00  1.06987E+03  1.555E+00  8.218E+00  5.547E-02  1.777E+00
   1    4    8     3     4    1.2712E+00  2.2567E-01   1.0456E+00  0.000E+00  0.000E+00  0.000E+00  1.06682E+03  1.364E+00  7.455E+00  6.709E-02  1.682E+00
   1    5    8     3     5    1.0456E+00  1.5790E-01   8.8768E-01  0.000E+00  0.000E+00  0.000E+00  1.06362E+03  1.164E+00  6.655E+00  4.991E-02  1.582E+00
   1    6    8     3     6    8.8768E-01  5.5980E-02   8.3170E-01  0.000E+00  0.000E+00  0.000E+00  1.06158E+03  1.036E+00  6.145E+00  1.844E-02  1.518E+00
   1    5   10     4     1    1.0000E+01  9.0919E-02   9.9091E+00  0.000E+00  0.000E+00  0.000E+00  1.07836E+03  6.368E-01  1.000E+01  2.500E-02  1.212E+00
   1    5    9     4     2    9.9091E+00  1.8158E-01   9.7275E+00  0.000E+00  0.000E+00  0.000E+00  1.07154E+03  6.315E-01  1.000E+01  5.000E-02  1.211E+00
   1    6    8     4     3    9.7275E+00  1.2689E-01   9.6006E+00  0.000E+00  0.000E+00  0.000E+00  1.06381E+03  6.256E-01  1.000E+01  3.500E-02  1.209E+00
   1    6    8     5     1    1.0432E+01  2.2686E-01   1.0205E+01  0.000E+00  0.000E+00  0.000E+00  1.05868E+03  6.790E-01  1.542E+01  6.166E-02  1.226E+00
   1    7    7     5     2    1.0205E+01  2.7894E-01   9.9265E+00  0.000E+00  0.000E+00  0.000E+00  1.05417E+03  6.732E-01  1.519E+01  7.594E-02  1.224E+00
   1    8    7     5     3    9.9265E+00  1.9221E-01   9.7343E+00  0.000E+00  0.000E+00  0.000E+00  1.04992E+03  6.676E-01  1.497E+01  5.241E-02  1.223E+00
   1    8    6     5     4    9.7343E+00  1.3577E-01   9.5985E+00  0.000E+00  0.000E+00  0.000E+00  1.04691E+03  6.637E-01  1.482E+01  3.706E-02  1.221E+00
   1    9    6     6     1    4.1456E+01  2.7904E-01   4.1177E+01  0.000E+00  0.000E+00  0.000E+00  1.04438E+03  1.651E+00  1.200E+01  6.000E-02  1.550E+00
   1   10    7     6     2    4.1177E+01  2.7863E-01   4.0898E+01  0.000E+00  0.000E+00  0.000E+00  1.03983E+03  1.644E+00  1.200E+01  6.000E-02  1.548E+00
   1   11    7     6     3    4.0898E+01  2.7823E-01   4.0620E+01  0.000E+00  0.000E+00  0.000E+00  1.03527E+03  1.637E+00  1.200E+01  6.000E-02  1.546E+00
   1   12    7     6     4    4.0620E+01  2.7783E-01   4.0342E+01  0.000E+00  0.000E+00  0.000E+00  1.03072E+03  1.630E+00  1.200E+01  6.000E-02  1.543E+00
   1   13    7     6     5    4.0342E+01  2.7602E-02   4.0314E+01  0.000E+00  0.000E+00  0.000E+00  1.02754E+03  1.627E+00  1.200E+01  2.400E-02  3.834E-01
   1   14    9     7     1    1.5000E+02  1.4032E+00   1.4860E+02  0.000E+00  0.000E+00  0.000E+00  1.03987E+03  2.288E+00  5.529E+01  5.593E-01  8.363E-01
   1   13    8     7     2    1.4860E+02  2.0545E+00   1.4654E+02  0.000E+00  0.000E+00  0.000E+00  1.03478E+03  2.278E+00  5.525E+01  6.147E-01  1.114E+00
   1   13    7     7     3    1.4654E+02  1.8433E+00   1.4470E+02  0.000E+00  0.000E+00  0.000E+00  1.02969E+03  2.268E+00  5.521E+01  5.583E-01  1.100E+00
   1   13    6     8     1    1.8501E+02  1.3560E+00   1.8366E+02  0.000E+00  0.000E+00  0.000E+00  1.02492E+03  3.043E+00  4.413E+01  4.497E-01  1.005E+00
   1   13    5     8     2    1.8366E+02  5.5182E-01   1.8311E+02  0.000E+00  0.000E+00  0.000E+00  1.01866E+03  3.037E+00  4.404E+01  4.488E-01  4.099E-01
   1   13    4     8     3    1.8311E+02 -1.2363E+00   1.8434E+02  0.000E+00  0.000E+00  0.000E+00  1.01241E+03  3.039E+00  4.407E+01  4.491E+00 -9.176E-02
   1   13    3     8     4    1.8434E+02 -3.0433E+00   1.8739E+02  0.000E+00  0.000E+00  0.000E+00  1.00618E+03  3.053E+00  4.426E+01  4.511E+00 -2.249E-01
   1   13    2     8     5    1.8739E+02 -2.3661E+00   1.8975E+02  0.000E+00  0.000E+00  0.000E+00  9.99944E+02  3.069E+00  4.450E+01  4.535E+00 -1.739E-01
   1   13    1     8     6    1.8975E+02 -1.8648E+00   1.9162E+02  0.000E+00  0.000E+00  0.000E+00  9.94957E+02  3.082E+00  4.469E+01  2.732E+00 -2.275E-01
   1    8    6     9     1    0.0000E+00  0.0000E+00   0.0000E+00  0.000E+00  0.000E+00  0.000E+00  1.07875E+03  0.000E+00  4.000E+00  0.000E+00  1.000E+00
   1    8    5     9     2    0.0000E+00  0.0000E+00   0.0000E+00  0.000E+00  0.000E+00  0.000E+00  1.07825E+03  0.000E+00  4.000E+00  0.000E+00  1.000E+00





UNSATURATED ZONE PACKAGE VOLUMETRIC BUDGET FOR  TIME STEP    30 STRESS PERIOD   40
  ------------------------------------------------------------------------------



     CUMULATIVE VOLUMES      L**3       RATES FOR THIS TIME STEP      L**3/T
     ------------------                 ------------------------

           IN:                                      IN:
           ---                                      ---
        INFILTRATION =  1290779095.0677          INFILTRATION =           0.8475

          OUT:                                     OUT:
          ----                                     ----
              UZF ET =  1288690050.9543                UZF ET =           0.7500
        UZF RECHARGE =       73224.0000          UZF RECHARGE =       0.0000E+00

            IN - OUT =     2015820.1133              IN - OUT =       9.7500E-02

          STORAGE:                                 STORAGE:
          --------                                 --------
      STORAGE CHANGE =     2015820.2542        STORAGE CHANGE =       9.7500E-02

 PERCENT DISCREPANCY IS DIFFERENCE BETWEEN IN-OUT MINUS CHANGE IN STORAGE
 DIVIDED BY THE AVERAGE OF IN AND OUT TIMES 100

 PERCENT DISCREPANCY =           0.00     PERCENT DISCREPANCY =           0.00






1
  VOLUMETRIC BUDGET FOR AGRICULTURAL FIELDS AT  END OF TIME STEP   30, STRESS PERIOD  40
  ------------------------------------------------------------------------------

     CUMULATIVE VOLUMES      L**3       RATES FOR THIS TIME STEP      L**3/T
     ------------------                 ------------------------

           IN:                                      IN:
           ---                                      ---
               AG WELLS  =  1203775104.0000                 AG WELLS  =           0.0000
      DIVERSION SEGMENTS =           0.0000        DIVERSION SEGMENTS =           0.0000
       IRRIGATION PONDS  =           0.0000         IRRIGATION PONDS  =           0.0000
           GW IRRIGATION =           0.0000             GW IRRIGATION =           0.0000
           SW IRRIGATION =           0.0000             SW IRRIGATION =           0.0000
        SYSTEM LOSSES GW =           0.0000          SYSTEM LOSSES GW =           0.0000
        SYSTEM LOSSES SW =           0.0000          SYSTEM LOSSES SW =           0.0000

                TOTAL IN =  1203775104.0000                  TOTAL IN =           0.0000

          OUT:                                     OUT:
          ----                                     ----
               AG WELLS  =           0.0000                 AG WELLS  =           0.0000
      DIVERSION SEGMENTS =           0.0000        DIVERSION SEGMENTS =           0.0000
       IRRIGATION PONDS  =           0.0000         IRRIGATION PONDS  =           0.0000
           GW IRRIGATION =  1203775104.0000             GW IRRIGATION =           0.0000
           SW IRRIGATION =           0.0000             SW IRRIGATION =           0.0000
        SYSTEM LOSSES GW =           0.0000          SYSTEM LOSSES GW =           0.0000
        SYSTEM LOSSES SW =           0.0000          SYSTEM LOSSES SW =           0.0000

               TOTAL OUT =  1203775104.0000                 TOTAL OUT =           0.0000

                IN - OUT =           0.0000                  IN - OUT =           0.0000

     PERCENT DISCREPANCY =           0.00         PERCENT DISCREPANCY =           0.00



1
  VOLUMETRIC BUDGET FOR ENTIRE MODEL AT END OF TIME STEP   30, STRESS PERIOD  40
  ------------------------------------------------------------------------------

     CUMULATIVE VOLUMES      L**3       RATES FOR THIS TIME STEP      L**3/T
     ------------------                 ------------------------

           IN:                                      IN:
           ---                                      ---
             STORAGE     =  1645285888.0000               STORAGE     =           3.0902
       CONSTANT HEAD     =           0.0000         CONSTANT HEAD     =           0.0000
     HEAD DEP BOUNDS     =    29630262.0000       HEAD DEP BOUNDS     =           0.2903
      STREAM LEAKAGE     =  1240103936.0000        STREAM LEAKAGE     =          13.6433
        UZF RECHARGE     =       73223.9531          UZF RECHARGE     =           0.0000
               GW ET     =           0.0000                 GW ET     =           0.0000
     SURFACE LEAKAGE     =           0.0000       SURFACE LEAKAGE     =           0.0000
           AG WELLS      =           0.0000             AG WELLS      =           0.0000

                TOTAL IN =  2915093248.0000                  TOTAL IN =          17.0239

          OUT:                                     OUT:
          ----                                     ----
             STORAGE     =   684408768.0000               STORAGE     =           8.2244
       CONSTANT HEAD     =           0.0000         CONSTANT HEAD     =           0.0000
     HEAD DEP BOUNDS     =    29639058.0000       HEAD DEP BOUNDS     =           0.2903
      STREAM LEAKAGE     =   997280576.0000        STREAM LEAKAGE     =           8.5106
        UZF RECHARGE     =           0.0000          UZF RECHARGE     =           0.0000
               GW ET     =           0.0000                 GW ET     =           0.0000
     SURFACE LEAKAGE     =           0.0000       SURFACE LEAKAGE     =           0.0000
           AG WELLS      =  1203775104.0000             AG WELLS      =           0.0000

               TOTAL OUT =  2915103488.0000                 TOTAL OUT =          17.0254

                IN - OUT =      -10240.0000                  IN - OUT =      -1.4648E-03

     PERCENT DISCREPANCY =          -0.00         PERCENT DISCREPANCY =          -0.01






         TIME SUMMARY AT END OF TIME STEP   30 IN STRESS PERIOD   40
                    SECONDS     MINUTES      HOURS       DAYS        YEARS
                    -----------------------------------------------------------
   TIME STEP LENGTH  87667.      1461.1      24.352      1.0147     2.77799E-03
 STRESS PERIOD TIME 2.63000E+06  43833.      730.56      30.440     8.33397E-02
         TOTAL TIME 1.02656E+08 1.71093E+06  28515.      1188.1      3.2530    
1
1
                            STRESS PERIOD NO.   41, LENGTH =   2630000.    
                            -----------------------------------------------

                              NUMBER OF TIME STEPS =    30

                               MULTIPLIER FOR DELT =     1.000

                            INITIAL TIME STEP SIZE =   87666.66    

 REUSING NON-PARAMETER GHB CELLS FROM LAST STRESS PERIOD

      2 GHB CELLS

 REUSING STREAM SEGMENT DATA FROM LAST STRESS PERIOD



            AREAL INFILTRATION RATE
 READING ON UNIT   19 WITH FORMAT: (FREE)              

            1           2           3           4           5           6           7           8           9          10
 ........................................................................................................................
   1   1.0000E-10  2.0000E-10   0.000       0.000       0.000       0.000       0.000       0.000       0.000       0.000    
   2   2.0000E-10  1.0000E-10  2.0000E-10   0.000       0.000      8.0000E-10  8.0000E-10  5.0000E-10   0.000       0.000    
   3    0.000      5.0000E-10  1.0000E-10  1.0000E-10  8.0000E-10  8.0000E-10  5.0000E-10  5.0000E-10   0.000       0.000    
   4   8.0000E-10  5.0000E-10  1.0000E-10  1.0000E-10  1.0000E-10  1.0000E-10  1.0000E-10  1.0000E-10  2.0000E-10   0.000    
   5   8.0000E-10  5.0000E-10  1.0000E-10  1.0000E-10  1.0000E-10  1.0000E-10  1.0000E-10  1.0000E-10  1.0000E-10  1.0000E-10
   6   8.0000E-10  5.0000E-10  5.0000E-10  2.0000E-10  2.0000E-10  1.0000E-10  1.0000E-10  1.0000E-10  1.0000E-10  5.0000E-10
   7   8.0000E-10  5.0000E-10  5.0000E-10  2.0000E-10  2.0000E-10  1.0000E-10  1.0000E-10  2.0000E-10  2.0000E-10   0.000    
   8    0.000      5.0000E-10  5.0000E-10  2.0000E-10  2.0000E-10  1.0000E-10  1.0000E-10  2.0000E-10  5.0000E-10   0.000    
   9    0.000      5.0000E-10  5.0000E-10  2.0000E-10  2.0000E-10  1.0000E-10  1.0000E-10  2.0000E-10  5.0000E-10   0.000    
  10    0.000      5.0000E-10  5.0000E-10  2.0000E-10  2.0000E-10  1.0000E-10  1.0000E-10  2.0000E-10  5.0000E-10  8.0000E-10
  11    0.000      1.0000E-10  1.0000E-10  1.0000E-10  1.0000E-10  1.0000E-10  1.0000E-10  2.0000E-10  5.0000E-10   0.000    
  12   1.0000E-10  1.0000E-10  1.0000E-10  1.0000E-10  1.0000E-10  1.0000E-10  1.0000E-10  1.0000E-10  2.0000E-10   0.000    
  13   1.0000E-10  1.0000E-10  2.0000E-10  2.0000E-10  2.0000E-10  2.0000E-10  2.0000E-10  1.0000E-10  1.0000E-10   0.000    
  14    0.000      2.0000E-10  5.0000E-10  5.0000E-10  5.0000E-10  5.0000E-10  5.0000E-10  2.0000E-10  1.0000E-10   0.000    
  15    0.000       0.000      8.0000E-10  8.0000E-10  8.0000E-10  8.0000E-10   0.000       0.000       0.000       0.000    

                  ET RATE =  2.500000E-08

 USING ET EXTINCTION DEPTH FROM PREVIOUS STRESS PERIOD. CURRENT PERIOD IS:      41

 USING EXTINCTION WATER CONTENT FROM PREVIOUS STRESS PERIOD. CURRENT PERIOD IS:      41

 USING AIR ENTRY PRESSURE FROM PREVIOUS STRESS PERIOD. CURRENT PERIOD IS:      41

 USING ROOT PRESSURE HEAD FROM PREVIOUS STRESS PERIOD. CURRENT PERIOD IS:      41

 USING ROOT ACTIVITY FROM PREVIOUS STRESS PERIOD. CURRENT PERIOD IS:      41

 PROCESSING AG STRESS PERIOD DATA

 READING AG STRESS PERIOD DATA

 READING IRRIGATION SEGMENT

 READING IRRIGATION WELL

 READING SUPPLEMENTAL WELL

 NO IRRPOND OR REUSING IRRPOND DATA FROM LAST STRESS PERIOD

 END PROCESSING AG STRESS PERIOD DATA OPTIONS
 
 SOLVING FOR HEAD 
                                                   Max.-Head-Change                         Max.-Flux-Residual
  Residual-Control   Outer-Iter.   Inner-Iter.     Column Row Layer    Maximum-Head-Change  Column Row Layer    Maximum-Flux-Residual          L2-NORM 
          0                 1           2             4    7     1       0.1150432482E-01       4    7    1         0.6017026169E+00      0.1711245484E+01
          0                 2           2             4    7     1      -0.1119059249E-02       4    7    1        -0.6017040574E-01      0.1711045715E+00
          0                 3           1             4    7     1       0.7620376762E-04       4    7    1         0.4211928850E-02      0.1197551661E-01

    ------------------------------------------------
       NWT REQUIRED            3 OUTER ITERATIONS 
       AND A TOTAL OF          5 INNER ITERATIONS.
    ------------------------------------------------

 NO OUTPUT CONTROL FOR STRESS PERIOD   41   TIME STEP    1
 
 SOLVING FOR HEAD 
                                                   Max.-Head-Change                         Max.-Flux-Residual
  Residual-Control   Outer-Iter.   Inner-Iter.     Column Row Layer    Maximum-Head-Change  Column Row Layer    Maximum-Flux-Residual          L2-NORM 
          0                 1           2             4    7     1       0.1142887225E-01       4    7    1         0.5977363212E+00      0.1702736403E+01
          0                 2           2             4    7     1      -0.1111719736E-02       4    7    1        -0.5977377376E-01      0.1702561958E+00
          0                 3           1             4    7     1       0.7570397414E-04       4    7    1         0.4184164620E-02      0.1191629461E-01

    ------------------------------------------------
       NWT REQUIRED            3 OUTER ITERATIONS 
       AND A TOTAL OF          5 INNER ITERATIONS.
    ------------------------------------------------

 NO OUTPUT CONTROL FOR STRESS PERIOD   41   TIME STEP    2
 
 SOLVING FOR HEAD 
                                                   Max.-Head-Change                         Max.-Flux-Residual
  Residual-Control   Outer-Iter.   Inner-Iter.     Column Row Layer    Maximum-Head-Change  Column Row Layer    Maximum-Flux-Residual          L2-NORM 
          0                 1           2             4    7     1       0.1135443690E-01       4    7    1         0.5938242068E+00      0.1694380228E+01
          0                 2           2             4    7     1      -0.1104479171E-02       4    7    1        -0.5938255999E-01      0.1694227488E+00
          0                 3           1             4    7     1       0.7521091899E-04       4    7    1         0.4156779668E-02      0.1185813472E-01

    ------------------------------------------------
       NWT REQUIRED            3 OUTER ITERATIONS 
       AND A TOTAL OF          5 INNER ITERATIONS.
    ------------------------------------------------

 NO OUTPUT CONTROL FOR STRESS PERIOD   41   TIME STEP    3
 
 SOLVING FOR HEAD 
                                                   Max.-Head-Change                         Max.-Flux-Residual
  Residual-Control   Outer-Iter.   Inner-Iter.     Column Row Layer    Maximum-Head-Change  Column Row Layer    Maximum-Flux-Residual          L2-NORM 
          0                 1           2             4    7     1       0.1128072353E-01       4    7    1         0.5899502512E+00      0.1683799986E+01
          0                 2           2             4    7     1      -0.1097308836E-02       4    7    1        -0.5899516214E-01      0.1683731283E+00
          0                 3           1             4    7     1       0.7472264629E-04       4    7    1         0.4129661843E-02      0.1178550377E-01

    ------------------------------------------------
       NWT REQUIRED            3 OUTER ITERATIONS 
       AND A TOTAL OF          5 INNER ITERATIONS.
    ------------------------------------------------

 NO OUTPUT CONTROL FOR STRESS PERIOD   41   TIME STEP    4
 
 SOLVING FOR HEAD 
                                                   Max.-Head-Change                         Max.-Flux-Residual
  Residual-Control   Outer-Iter.   Inner-Iter.     Column Row Layer    Maximum-Head-Change  Column Row Layer    Maximum-Flux-Residual          L2-NORM 
          0                 1           2             4    7     1       0.1120780201E-01       4    7    1         0.5861210196E+00      0.1679955837E+01
          0                 2           2             4    7     1      -0.1090215528E-02       4    7    1        -0.5861223680E-01      0.1678882648E+00
          0                 3           1             4    7     1       0.7423961827E-04       4    7    1         0.4102857064E-02      0.1174237802E-01

    ------------------------------------------------
       NWT REQUIRED            3 OUTER ITERATIONS 
       AND A TOTAL OF          5 INNER ITERATIONS.
    ------------------------------------------------

 NO OUTPUT CONTROL FOR STRESS PERIOD   41   TIME STEP    5
 
 SOLVING FOR HEAD 
                                                   Max.-Head-Change                         Max.-Flux-Residual
  Residual-Control   Outer-Iter.   Inner-Iter.     Column Row Layer    Maximum-Head-Change  Column Row Layer    Maximum-Flux-Residual          L2-NORM 
          0                 1           2             4    7     1       0.1113565810E-01       4    7    1         0.5823328436E+00      0.1669106350E+01
          0                 2           2             4    7     1      -0.1083197861E-02       4    7    1        -0.5823341708E-01      0.1668191898E+00
          0                 3           1             4    7     1       0.7376174168E-04       4    7    1         0.4076339694E-02      0.1166906346E-01

    ------------------------------------------------
       NWT REQUIRED            3 OUTER ITERATIONS 
       AND A TOTAL OF          5 INNER ITERATIONS.
    ------------------------------------------------

 NO OUTPUT CONTROL FOR STRESS PERIOD   41   TIME STEP    6
 
 SOLVING FOR HEAD 
                                                   Max.-Head-Change                         Max.-Flux-Residual
  Residual-Control   Outer-Iter.   Inner-Iter.     Column Row Layer    Maximum-Head-Change  Column Row Layer    Maximum-Flux-Residual          L2-NORM 
          0                 1           2             4    7     1       0.1106428441E-01       4    7    1         0.5785849854E+00      0.1658871419E+01
          0                 2           2             4    7     1      -0.1076255115E-02       4    7    1        -0.5785862913E-01      0.1658096112E+00
          0                 3           1             4    7     1       0.7328896647E-04       4    7    1         0.4050104539E-02      0.1159969453E-01

    ------------------------------------------------
       NWT REQUIRED            3 OUTER ITERATIONS 
       AND A TOTAL OF          5 INNER ITERATIONS.
    ------------------------------------------------

 NO OUTPUT CONTROL FOR STRESS PERIOD   41   TIME STEP    7
 
 SOLVING FOR HEAD 
                                                   Max.-Head-Change                         Max.-Flux-Residual
  Residual-Control   Outer-Iter.   Inner-Iter.     Column Row Layer    Maximum-Head-Change  Column Row Layer    Maximum-Flux-Residual          L2-NORM 
          0                 1           2             4    7     1       0.1099353152E-01       4    7    1         0.5748697697E+00      0.1649153057E+01
          0                 2           2             4    7     1      -0.1069372759E-02       4    7    1        -0.5748710553E-01      0.1648490111E+00
          0                 3           1             4    7     1       0.7282030452E-04       4    7    1         0.4024097919E-02      0.1153343366E-01

    ------------------------------------------------
       NWT REQUIRED            3 OUTER ITERATIONS 
       AND A TOTAL OF          5 INNER ITERATIONS.
    ------------------------------------------------

 NO OUTPUT CONTROL FOR STRESS PERIOD   41   TIME STEP    8
 
 SOLVING FOR HEAD 
                                                   Max.-Head-Change                         Max.-Flux-Residual
  Residual-Control   Outer-Iter.   Inner-Iter.     Column Row Layer    Maximum-Head-Change  Column Row Layer    Maximum-Flux-Residual          L2-NORM 
          0                 1           2             4    7     1       0.1092366483E-01       4    7    1         0.5712013258E+00      0.1639884556E+01
          0                 2           2             4    7     1      -0.1062576605E-02       4    7    1        -0.5712025911E-01      0.1639319434E+00
          0                 3           1             4    7     1       0.7235751147E-04       4    7    1         0.3998418663E-02      0.1147006242E-01

    ------------------------------------------------
       NWT REQUIRED            3 OUTER ITERATIONS 
       AND A TOTAL OF          5 INNER ITERATIONS.
    ------------------------------------------------

 NO OUTPUT CONTROL FOR STRESS PERIOD   41   TIME STEP    9
 
 SOLVING FOR HEAD 
                                                   Max.-Head-Change                         Max.-Flux-Residual
  Residual-Control   Outer-Iter.   Inner-Iter.     Column Row Layer    Maximum-Head-Change  Column Row Layer    Maximum-Flux-Residual          L2-NORM 
          0                 1           2             4    7     1       0.1085453229E-01       4    7    1         0.5675715379E+00      0.1630999234E+01
          0                 2           2             4    7     1      -0.1055851865E-02       4    7    1        -0.5675727835E-01      0.1630520076E+00
          0                 3           1             4    7     1       0.7189958218E-04       4    7    1         0.3973010031E-02      0.1140947897E-01

    ------------------------------------------------
       NWT REQUIRED            3 OUTER ITERATIONS 
       AND A TOTAL OF          5 INNER ITERATIONS.
    ------------------------------------------------

 NO OUTPUT CONTROL FOR STRESS PERIOD   41   TIME STEP   10
 
 SOLVING FOR HEAD 
                                                   Max.-Head-Change                         Max.-Flux-Residual
  Residual-Control   Outer-Iter.   Inner-Iter.     Column Row Layer    Maximum-Head-Change  Column Row Layer    Maximum-Flux-Residual          L2-NORM 
          0                 1           2             4    7     1       0.1078612108E-01       4    7    1         0.5639798141E+00      0.1622450497E+01
          0                 2           2             4    7     1      -0.1049197290E-02       4    7    1        -0.5639810401E-01      0.1622039221E+00
          0                 3           1             4    7     1       0.7144643049E-04       4    7    1         0.3947867832E-02      0.1135047382E-01

    ------------------------------------------------
       NWT REQUIRED            3 OUTER ITERATIONS 
       AND A TOTAL OF          5 INNER ITERATIONS.
    ------------------------------------------------

 NO OUTPUT CONTROL FOR STRESS PERIOD   41   TIME STEP   11
 
 SOLVING FOR HEAD 
                                                   Max.-Head-Change                         Max.-Flux-Residual
  Residual-Control   Outer-Iter.   Inner-Iter.     Column Row Layer    Maximum-Head-Change  Column Row Layer    Maximum-Flux-Residual          L2-NORM 
          0                 1           2             4    7     1       0.1071829055E-01       4    7    1         0.5604181974E+00      0.1614186512E+01
          0                 2           2             4    7     1      -0.1042599200E-02       4    7    1        -0.5604194044E-01      0.1613835128E+00
          0                 3           1             4    7     1       0.7099712510E-04       4    7    1         0.3922936383E-02      0.1129366243E-01

    ------------------------------------------------
       NWT REQUIRED            3 OUTER ITERATIONS 
       AND A TOTAL OF          5 INNER ITERATIONS.
    ------------------------------------------------

 NO OUTPUT CONTROL FOR STRESS PERIOD   41   TIME STEP   12
 
 SOLVING FOR HEAD 
                                                   Max.-Head-Change                         Max.-Flux-Residual
  Residual-Control   Outer-Iter.   Inner-Iter.     Column Row Layer    Maximum-Head-Change  Column Row Layer    Maximum-Flux-Residual          L2-NORM 
          0                 1           2             4    7     1       0.1065130058E-01       4    7    1         0.5569012733E+00      0.1606174136E+01
          0                 2           2             4    7     1      -0.1036082875E-02       4    7    1        -0.5569024617E-01      0.1605872687E+00
          0                 3           1             4    7     1       0.7055338804E-04       4    7    1         0.3898317802E-02      0.1123835511E-01

    ------------------------------------------------
       NWT REQUIRED            3 OUTER ITERATIONS 
       AND A TOTAL OF          5 INNER ITERATIONS.
    ------------------------------------------------

 NO OUTPUT CONTROL FOR STRESS PERIOD   41   TIME STEP   13
 
 SOLVING FOR HEAD 
                                                   Max.-Head-Change                         Max.-Flux-Residual
  Residual-Control   Outer-Iter.   Inner-Iter.     Column Row Layer    Maximum-Head-Change  Column Row Layer    Maximum-Flux-Residual          L2-NORM 
          0                 1           2             4    7     1       0.1058500143E-01       4    7    1         0.5534206381E+00      0.1598385385E+01
          0                 2           2             4    7     1      -0.1029633748E-02       4    7    1        -0.5534218082E-01      0.1598126279E+00
          0                 3           1             4    7     1       0.7011422647E-04       4    7    1         0.3873953216E-02      0.1118441138E-01

    ------------------------------------------------
       NWT REQUIRED            3 OUTER ITERATIONS 
       AND A TOTAL OF          5 INNER ITERATIONS.
    ------------------------------------------------

 NO OUTPUT CONTROL FOR STRESS PERIOD   41   TIME STEP   14
 
 SOLVING FOR HEAD 
                                                   Max.-Head-Change                         Max.-Flux-Residual
  Residual-Control   Outer-Iter.   Inner-Iter.     Column Row Layer    Maximum-Head-Change  Column Row Layer    Maximum-Flux-Residual          L2-NORM 
          0                 1           2             4    7     1       0.1051938367E-01       4    7    1         0.5499758210E+00      0.1590793784E+01
          0                 2           2             4    7     1      -0.1023250903E-02       4    7    1        -0.5499769731E-01      0.1590572235E+00
          0                 3           1             4    7     1       0.6967957849E-04       4    7    1         0.3849839378E-02      0.1113193440E-01

    ------------------------------------------------
       NWT REQUIRED            3 OUTER ITERATIONS 
       AND A TOTAL OF          5 INNER ITERATIONS.
    ------------------------------------------------

 NO OUTPUT CONTROL FOR STRESS PERIOD   41   TIME STEP   15
 
 SOLVING FOR HEAD 
                                                   Max.-Head-Change                         Max.-Flux-Residual
  Residual-Control   Outer-Iter.   Inner-Iter.     Column Row Layer    Maximum-Head-Change  Column Row Layer    Maximum-Flux-Residual          L2-NORM 
          0                 1           2             4    7     1       0.1045430128E-01       4    7    1         0.5465590394E+00      0.1583369363E+01
          0                 2           2             4    7     1      -0.1016920135E-02       4    7    1        -0.5465601738E-01      0.1583180150E+00
          0                 3           1             4    7     1       0.6924847718E-04       4    7    1         0.3825921806E-02      0.1108051920E-01

    ------------------------------------------------
       NWT REQUIRED            3 OUTER ITERATIONS 
       AND A TOTAL OF          5 INNER ITERATIONS.
    ------------------------------------------------

 NO OUTPUT CONTROL FOR STRESS PERIOD   41   TIME STEP   16
 
 SOLVING FOR HEAD 
                                                   Max.-Head-Change                         Max.-Flux-Residual
  Residual-Control   Outer-Iter.   Inner-Iter.     Column Row Layer    Maximum-Head-Change  Column Row Layer    Maximum-Flux-Residual          L2-NORM 
          0                 1           2             4    7     1       0.1039002023E-01       4    7    1         0.5431846023E+00      0.1576109801E+01
          0                 2           2             4    7     1      -0.1010667315E-02       4    7    1        -0.5431857194E-01      0.1575947081E+00
          0                 3           1             4    7     1       0.6882268303E-04       4    7    1         0.3802300601E-02      0.1103013493E-01

    ------------------------------------------------
       NWT REQUIRED            3 OUTER ITERATIONS 
       AND A TOTAL OF          5 INNER ITERATIONS.
    ------------------------------------------------

 NO OUTPUT CONTROL FOR STRESS PERIOD   41   TIME STEP   17
 
 SOLVING FOR HEAD 
                                                   Max.-Head-Change                         Max.-Flux-Residual
  Residual-Control   Outer-Iter.   Inner-Iter.     Column Row Layer    Maximum-Head-Change  Column Row Layer    Maximum-Flux-Residual          L2-NORM 
          0                 1           2             4    7     1       0.1032638955E-01       4    7    1         0.5398444201E+00      0.1568989139E+01
          0                 2           2             4    7     1      -0.1004477760E-02       4    7    1        -0.5398455205E-01      0.1568849157E+00
          0                 3           1             4    7     1       0.6840119775E-04       4    7    1         0.3778919226E-02      0.1098073145E-01

    ------------------------------------------------
       NWT REQUIRED            3 OUTER ITERATIONS 
       AND A TOTAL OF          5 INNER ITERATIONS.
    ------------------------------------------------

 NO OUTPUT CONTROL FOR STRESS PERIOD   41   TIME STEP   18
 
 SOLVING FOR HEAD 
                                                   Max.-Head-Change                         Max.-Flux-Residual
  Residual-Control   Outer-Iter.   Inner-Iter.     Column Row Layer    Maximum-Head-Change  Column Row Layer    Maximum-Flux-Residual          L2-NORM 
          0                 1           2             4    7     1       0.1026340152E-01       4    7    1         0.5365379585E+00      0.1561999833E+01
          0                 2           2             4    7     1      -0.9983507179E-03       4    7    1        -0.5365390423E-01      0.1561879022E+00
          0                 3           1             4    7     1       0.6798396916E-04       4    7    1         0.3755773887E-02      0.1093201963E-01

    ------------------------------------------------
       NWT REQUIRED            3 OUTER ITERATIONS 
       AND A TOTAL OF          5 INNER ITERATIONS.
    ------------------------------------------------

 NO OUTPUT CONTROL FOR STRESS PERIOD   41   TIME STEP   19
 
 SOLVING FOR HEAD 
                                                   Max.-Head-Change                         Max.-Flux-Residual
  Residual-Control   Outer-Iter.   Inner-Iter.     Column Row Layer    Maximum-Head-Change  Column Row Layer    Maximum-Flux-Residual          L2-NORM 
          0                 1           2             4    7     1       0.1020104298E-01       4    7    1         0.5332648174E+00      0.1555125097E+01
          0                 2           2             4    7     1      -0.9922849076E-03       4    7    1        -0.5332658847E-01      0.1555020178E+00
          0                 3           1             4    7     1       0.6757091005E-04       4    7    1         0.3732861789E-02      0.1088407924E-01

    ------------------------------------------------
       NWT REQUIRED            3 OUTER ITERATIONS 
       AND A TOTAL OF          5 INNER ITERATIONS.
    ------------------------------------------------

 NO OUTPUT CONTROL FOR STRESS PERIOD   41   TIME STEP   20
 
 SOLVING FOR HEAD 
                                                   Max.-Head-Change                         Max.-Flux-Residual
  Residual-Control   Outer-Iter.   Inner-Iter.     Column Row Layer    Maximum-Head-Change  Column Row Layer    Maximum-Flux-Residual          L2-NORM 
          0                 1           2             4    7     1       0.1013930608E-01       4    7    1         0.5300243138E+00      0.1548358688E+01
          0                 2           2             4    7     1      -0.9862795674E-03       4    7    1        -0.5300253654E-01      0.1548268303E+00
          0                 3           1             4    7     1       0.6716196904E-04       4    7    1         0.3710178168E-02      0.1083699078E-01

    ------------------------------------------------
       NWT REQUIRED            3 OUTER ITERATIONS 
       AND A TOTAL OF          5 INNER ITERATIONS.
    ------------------------------------------------

 NO OUTPUT CONTROL FOR STRESS PERIOD   41   TIME STEP   21
 
 SOLVING FOR HEAD 
                                                   Max.-Head-Change                         Max.-Flux-Residual
  Residual-Control   Outer-Iter.   Inner-Iter.     Column Row Layer    Maximum-Head-Change  Column Row Layer    Maximum-Flux-Residual          L2-NORM 
          0                 1           2             4    7     1       0.1007818542E-01       4    7    1         0.5268160416E+00      0.1541695859E+01
          0                 2           2             4    7     1      -0.9803341698E-03       4    7    1        -0.5268170772E-01      0.1541618121E+00
          0                 3           1             4    7     1       0.6675710971E-04       4    7    1         0.3687720150E-02      0.1079059735E-01

    ------------------------------------------------
       NWT REQUIRED            3 OUTER ITERATIONS 
       AND A TOTAL OF          5 INNER ITERATIONS.
    ------------------------------------------------

 NO OUTPUT CONTROL FOR STRESS PERIOD   41   TIME STEP   22
 
 SOLVING FOR HEAD 
                                                   Max.-Head-Change                         Max.-Flux-Residual
  Residual-Control   Outer-Iter.   Inner-Iter.     Column Row Layer    Maximum-Head-Change  Column Row Layer    Maximum-Flux-Residual          L2-NORM 
          0                 1           2             4    7     1       0.1001766972E-01       4    7    1         0.5236397201E+00      0.1535125625E+01
          0                 2           2             4    7     1      -0.9744476196E-03       4    7    1        -0.5236407403E-01      0.1535058357E+00
          0                 3           1             4    7     1       0.6635625761E-04       4    7    1         0.3665485808E-02      0.1074479690E-01

    ------------------------------------------------
       NWT REQUIRED            3 OUTER ITERATIONS 
       AND A TOTAL OF          5 INNER ITERATIONS.
    ------------------------------------------------

 NO OUTPUT CONTROL FOR STRESS PERIOD   41   TIME STEP   23
 
 SOLVING FOR HEAD 
                                                   Max.-Head-Change                         Max.-Flux-Residual
  Residual-Control   Outer-Iter.   Inner-Iter.     Column Row Layer    Maximum-Head-Change  Column Row Layer    Maximum-Flux-Residual          L2-NORM 
          0                 1           2             4    7     1       0.9957750124E-02       4    7    1         0.5204947650E+00      0.1528644146E+01
          0                 2           2             4    7     1      -0.9686190543E-03       4    7    1        -0.5204957700E-01      0.1528586082E+00
          0                 3           1             4    7     1       0.6595935440E-04       4    7    1         0.3643471024E-02      0.1069957269E-01

    ------------------------------------------------
       NWT REQUIRED            3 OUTER ITERATIONS 
       AND A TOTAL OF          5 INNER ITERATIONS.
    ------------------------------------------------

 NO OUTPUT CONTROL FOR STRESS PERIOD   41   TIME STEP   24
 
 SOLVING FOR HEAD 
                                                   Max.-Head-Change                         Max.-Flux-Residual
  Residual-Control   Outer-Iter.   Inner-Iter.     Column Row Layer    Maximum-Head-Change  Column Row Layer    Maximum-Flux-Residual          L2-NORM 
          0                 1           2             4    7     1       0.9898417233E-02       4    7    1         0.5173807169E+00      0.1522242586E+01
          0                 2           2             4    7     1      -0.9628475597E-03       4    7    1        -0.5173817070E-01      0.1522191718E+00
          0                 3           1             4    7     1       0.6556633714E-04       4    7    1         0.3621672570E-02      0.1065485118E-01

    ------------------------------------------------
       NWT REQUIRED            3 OUTER ITERATIONS 
       AND A TOTAL OF          5 INNER ITERATIONS.
    ------------------------------------------------

 NO OUTPUT CONTROL FOR STRESS PERIOD   41   TIME STEP   25
 
 SOLVING FOR HEAD 
                                                   Max.-Head-Change                         Max.-Flux-Residual
  Residual-Control   Outer-Iter.   Inner-Iter.     Column Row Layer    Maximum-Head-Change  Column Row Layer    Maximum-Flux-Residual          L2-NORM 
          0                 1           2             4    7     1       0.9839799826E-02       4    7    1         0.5143043833E+00      0.1515929109E+01
          0                 2           2             4    7     1      -0.9571456629E-03       4    7    1        -0.5143053589E-01      0.1515885328E+00
          0                 3           1             4    7     1       0.6517805925E-04       4    7    1         0.3600138152E-02      0.1061080539E-01

    ------------------------------------------------
       NWT REQUIRED            3 OUTER ITERATIONS 
       AND A TOTAL OF          5 INNER ITERATIONS.
    ------------------------------------------------

 NO OUTPUT CONTROL FOR STRESS PERIOD   41   TIME STEP   26
 
 SOLVING FOR HEAD 
                                                   Max.-Head-Change                         Max.-Flux-Residual
  Residual-Control   Outer-Iter.   Inner-Iter.     Column Row Layer    Maximum-Head-Change  Column Row Layer    Maximum-Flux-Residual          L2-NORM 
          0                 1           2             4    7     1       0.9781604630E-02       4    7    1         0.5112505564E+00      0.1509799794E+01
          0                 2           2             4    7     1      -0.9514848357E-03       4    7    1        -0.5112515177E-01      0.1509646076E+00
          0                 3           1             4    7     1       0.6479257801E-04       4    7    1         0.3578761251E-02      0.1056614815E-01

    ------------------------------------------------
       NWT REQUIRED            3 OUTER ITERATIONS 
       AND A TOTAL OF          5 INNER ITERATIONS.
    ------------------------------------------------

 NO OUTPUT CONTROL FOR STRESS PERIOD   41   TIME STEP   27
 
 SOLVING FOR HEAD 
                                                   Max.-Head-Change                         Max.-Flux-Residual
  Residual-Control   Outer-Iter.   Inner-Iter.     Column Row Layer    Maximum-Head-Change  Column Row Layer    Maximum-Flux-Residual          L2-NORM 
          0                 1           2             4    7     1       0.9724072173E-02       4    7    1         0.5082332104E+00      0.1511351624E+01
          0                 2           2             4    7     1      -0.9458884768E-03       4    7    1        -0.5082341583E-01      0.1510503650E+00
          0                 3           1             4    7     1       0.6441148718E-04       4    7    1         0.3557639764E-02      0.1056577529E-01

    ------------------------------------------------
       NWT REQUIRED            3 OUTER ITERATIONS 
       AND A TOTAL OF          5 INNER ITERATIONS.
    ------------------------------------------------

 NO OUTPUT CONTROL FOR STRESS PERIOD   41   TIME STEP   28
 
 SOLVING FOR HEAD 
                                                   Max.-Head-Change                         Max.-Flux-Residual
  Residual-Control   Outer-Iter.   Inner-Iter.     Column Row Layer    Maximum-Head-Change  Column Row Layer    Maximum-Flux-Residual          L2-NORM 
          0                 1           2             4    7     1       0.9667055945E-02       4    7    1         0.5052429308E+00      0.1503176506E+01
          0                 2           2             4    7     1      -0.9403423321E-03       4    7    1        -0.5052438650E-01      0.1502445049E+00
          0                 3           1             4    7     1       0.6403381534E-04       4    7    1         0.3536707704E-02      0.1051038554E-01

    ------------------------------------------------
       NWT REQUIRED            3 OUTER ITERATIONS 
       AND A TOTAL OF          5 INNER ITERATIONS.
    ------------------------------------------------

 NO OUTPUT CONTROL FOR STRESS PERIOD   41   TIME STEP   29
 
 SOLVING FOR HEAD 
                                                   Max.-Head-Change                         Max.-Flux-Residual
  Residual-Control   Outer-Iter.   Inner-Iter.     Column Row Layer    Maximum-Head-Change  Column Row Layer    Maximum-Flux-Residual          L2-NORM 
          0                 1           2             4    7     1       0.9610554773E-02       4    7    1         0.5022794168E+00      0.1495369345E+01
          0                 2           2             4    7     1      -0.9348462888E-03       4    7    1        -0.5022803377E-01      0.1494739606E+00
          0                 3           1             4    7     1       0.6365955514E-04       4    7    1         0.3515963016E-02      0.1045749347E-01

    ------------------------------------------------
       NWT REQUIRED            3 OUTER ITERATIONS 
       AND A TOTAL OF          5 INNER ITERATIONS.
    ------------------------------------------------

 NO OUTPUT CONTROL FOR STRESS PERIOD   41   TIME STEP   30



 STREAM LISTING     PERIOD     41   STEP       30

 LAYER ROW COL. STREAM  RCH.  FLOW INTO     FLOW TO   FLOW OUT OF   OVRLND.     DIRECT     STREAM       STREAM     STREAM     STREAM   STREAMBED  STREAMBED
                SEG.NO.  NO.  STRM. RCH.    AQUIFER    STRM. RCH.    RUNOFF     PRECIP       ET          HEAD       DEPTH      WIDTH   CONDCTNC.   GRADIENT

   1    1    1     1     1    2.3624E+01  2.3872E-01   2.3386E+01  0.000E+00  0.000E+00  0.000E+00  1.09421E+03  1.157E+00  1.276E+01  5.742E-02  1.386E+00
   1    2    2     1     2    2.3386E+01  3.6908E-01   2.3016E+01  0.000E+00  0.000E+00  0.000E+00  1.08921E+03  1.153E+00  1.270E+01  8.888E-02  1.384E+00
   1    3    3     1     3    2.3016E+01  3.1417E-01   2.2702E+01  0.000E+00  0.000E+00  0.000E+00  1.08357E+03  1.147E+00  1.263E+01  7.575E-02  1.382E+00
   1    3    4     1     4    2.2702E+01  2.8881E-01   2.2414E+01  0.000E+00  0.000E+00  0.000E+00  1.07855E+03  1.143E+00  1.256E+01  6.972E-02  1.381E+00
   1    4    5     2     1    2.0414E+01  3.1702E-01   2.0096E+01  0.000E+00  0.000E+00  0.000E+00  1.07300E+03  1.064E+00  1.200E+01  7.800E-02  1.355E+00
   1    5    6     2     2    2.0096E+01  2.4333E-01   1.9853E+01  0.000E+00  0.000E+00  0.000E+00  1.06756E+03  1.055E+00  1.200E+01  6.000E-02  1.352E+00
   1    6    6     2     3    1.9853E+01  2.4286E-01   1.9610E+01  0.000E+00  0.000E+00  0.000E+00  1.06284E+03  1.048E+00  1.200E+01  6.000E-02  1.349E+00
   1    7    6     2     4    1.9610E+01  2.4240E-01   1.9368E+01  0.000E+00  0.000E+00  0.000E+00  1.05812E+03  1.040E+00  1.200E+01  6.000E-02  1.347E+00
   1    8    6     2     5    1.9368E+01  2.4193E-01   1.9126E+01  0.000E+00  0.000E+00  0.000E+00  1.05339E+03  1.032E+00  1.200E+01  6.000E-02  1.344E+00
   1    3    5     3     1    2.0000E+00  2.8252E-01   1.7175E+00  0.000E+00  0.000E+00  0.000E+00  1.07555E+03  1.909E+00  9.636E+00  7.227E-02  1.955E+00
   1    3    6     3     2    1.7175E+00  2.4905E-01   1.4684E+00  0.000E+00  0.000E+00  0.000E+00  1.07264E+03  1.727E+00  8.909E+00  6.682E-02  1.864E+00
   1    3    7     3     3    1.4684E+00  1.9718E-01   1.2712E+00  0.000E+00  0.000E+00  0.000E+00  1.06987E+03  1.555E+00  8.218E+00  5.547E-02  1.777E+00
   1    4    8     3     4    1.2712E+00  2.2567E-01   1.0456E+00  0.000E+00  0.000E+00  0.000E+00  1.06682E+03  1.364E+00  7.455E+00  6.709E-02  1.682E+00
   1    5    8     3     5    1.0456E+00  1.5790E-01   8.8768E-01  0.000E+00  0.000E+00  0.000E+00  1.06362E+03  1.164E+00  6.655E+00  4.991E-02  1.582E+00
   1    6    8     3     6    8.8768E-01  5.5980E-02   8.3170E-01  0.000E+00  0.000E+00  0.000E+00  1.06158E+03  1.036E+00  6.145E+00  1.844E-02  1.518E+00
   1    5   10     4     1    1.0000E+01  9.0919E-02   9.9091E+00  0.000E+00  0.000E+00  0.000E+00  1.07836E+03  6.368E-01  1.000E+01  2.500E-02  1.212E+00
   1    5    9     4     2    9.9091E+00  1.8158E-01   9.7275E+00  0.000E+00  0.000E+00  0.000E+00  1.07154E+03  6.315E-01  1.000E+01  5.000E-02  1.211E+00
   1    6    8     4     3    9.7275E+00  1.2689E-01   9.6006E+00  0.000E+00  0.000E+00  0.000E+00  1.06381E+03  6.256E-01  1.000E+01  3.500E-02  1.209E+00
   1    6    8     5     1    1.0432E+01  2.2686E-01   1.0205E+01  0.000E+00  0.000E+00  0.000E+00  1.05868E+03  6.790E-01  1.542E+01  6.166E-02  1.226E+00
   1    7    7     5     2    1.0205E+01  2.7894E-01   9.9265E+00  0.000E+00  0.000E+00  0.000E+00  1.05417E+03  6.732E-01  1.519E+01  7.594E-02  1.224E+00
   1    8    7     5     3    9.9265E+00  1.9221E-01   9.7343E+00  0.000E+00  0.000E+00  0.000E+00  1.04992E+03  6.676E-01  1.497E+01  5.241E-02  1.223E+00
   1    8    6     5     4    9.7343E+00  1.3577E-01   9.5985E+00  0.000E+00  0.000E+00  0.000E+00  1.04691E+03  6.637E-01  1.482E+01  3.706E-02  1.221E+00
   1    9    6     6     1    2.8725E+01  2.5941E-01   2.8465E+01  0.000E+00  0.000E+00  0.000E+00  1.04405E+03  1.324E+00  1.200E+01  6.000E-02  1.441E+00
   1   10    7     6     2    2.8465E+01  2.5898E-01   2.8206E+01  0.000E+00  0.000E+00  0.000E+00  1.03950E+03  1.316E+00  1.200E+01  6.000E-02  1.439E+00
   1   11    7     6     3    2.8206E+01  2.5855E-01   2.7948E+01  0.000E+00  0.000E+00  0.000E+00  1.03495E+03  1.309E+00  1.200E+01  6.000E-02  1.436E+00
   1   12    7     6     4    2.7948E+01  2.5811E-01   2.7689E+01  0.000E+00  0.000E+00  0.000E+00  1.03039E+03  1.302E+00  1.200E+01  6.000E-02  1.434E+00
   1   13    7     6     5    2.7689E+01  1.9917E-02   2.7670E+01  0.000E+00  0.000E+00  0.000E+00  1.02721E+03  1.298E+00  1.200E+01  2.400E-02  2.766E-01
   1   14    9     7     1    1.5000E+02  1.4050E+00   1.4860E+02  0.000E+00  0.000E+00  0.000E+00  1.03987E+03  2.288E+00  5.529E+01  5.593E-01  8.374E-01
   1   13    8     7     2    1.4860E+02  2.0594E+00   1.4654E+02  0.000E+00  0.000E+00  0.000E+00  1.03478E+03  2.278E+00  5.525E+01  6.147E-01  1.117E+00
   1   13    7     7     3    1.4654E+02  1.8481E+00   1.4469E+02  0.000E+00  0.000E+00  0.000E+00  1.02969E+03  2.268E+00  5.521E+01  5.583E-01  1.103E+00
   1   13    6     8     1    1.7236E+02  1.2885E+00   1.7107E+02  0.000E+00  0.000E+00  0.000E+00  1.02484E+03  2.963E+00  4.297E+01  4.379E-01  9.809E-01
   1   13    5     8     2    1.7107E+02  5.0245E-01   1.7057E+02  0.000E+00  0.000E+00  0.000E+00  1.01858E+03  2.958E+00  4.288E+01  4.370E-01  3.833E-01
   1   13    4     8     3    1.7057E+02 -1.4207E+00   1.7199E+02  0.000E+00  0.000E+00  0.000E+00  1.01234E+03  2.960E+00  4.293E+01  4.374E+00 -1.083E-01
   1   13    3     8     4    1.7199E+02 -3.1898E+00   1.7518E+02  0.000E+00  0.000E+00  0.000E+00  1.00610E+03  2.975E+00  4.314E+01  4.396E+00 -2.418E-01
   1   13    2     8     5    1.7518E+02 -2.5254E+00   1.7770E+02  0.000E+00  0.000E+00  0.000E+00  9.99869E+02  2.994E+00  4.341E+01  4.423E+00 -1.903E-01
   1   13    1     8     6    1.7770E+02 -2.0000E+00   1.7970E+02  0.000E+00  0.000E+00  0.000E+00  9.94883E+02  3.008E+00  4.362E+01  2.667E+00 -2.500E-01
   1    8    6     9     1    0.0000E+00  0.0000E+00   0.0000E+00  0.000E+00  0.000E+00  0.000E+00  1.07875E+03  0.000E+00  4.000E+00  0.000E+00  1.000E+00
   1    8    5     9     2    0.0000E+00  0.0000E+00   0.0000E+00  0.000E+00  0.000E+00  0.000E+00  1.07825E+03  0.000E+00  4.000E+00  0.000E+00  1.000E+00





UNSATURATED ZONE PACKAGE VOLUMETRIC BUDGET FOR  TIME STEP    30 STRESS PERIOD   41
  ------------------------------------------------------------------------------



     CUMULATIVE VOLUMES      L**3       RATES FOR THIS TIME STEP      L**3/T
     ------------------                 ------------------------

           IN:                                      IN:
           ---                                      ---
        INFILTRATION =  1293008019.9404          INFILTRATION =           0.8475

          OUT:                                     OUT:
          ----                                     ----
              UZF ET =  1292182454.9672                UZF ET =           0.8475
        UZF RECHARGE =       73224.0000          UZF RECHARGE =       0.0000E+00

            IN - OUT =      752340.9732              IN - OUT =       0.0000E+00

          STORAGE:                                 STORAGE:
          --------                                 --------
      STORAGE CHANGE =      752341.1305        STORAGE CHANGE =      -1.8259E-15

 PERCENT DISCREPANCY IS DIFFERENCE BETWEEN IN-OUT MINUS CHANGE IN STORAGE
 DIVIDED BY THE AVERAGE OF IN AND OUT TIMES 100

 PERCENT DISCREPANCY =           0.00     PERCENT DISCREPANCY =           0.00






1
  VOLUMETRIC BUDGET FOR AGRICULTURAL FIELDS AT  END OF TIME STEP   30, STRESS PERIOD  41
  ------------------------------------------------------------------------------

     CUMULATIVE VOLUMES      L**3       RATES FOR THIS TIME STEP      L**3/T
     ------------------                 ------------------------

           IN:                                      IN:
           ---                                      ---
               AG WELLS  =  1203775104.0000                 AG WELLS  =           0.0000
      DIVERSION SEGMENTS =           0.0000        DIVERSION SEGMENTS =           0.0000
       IRRIGATION PONDS  =           0.0000         IRRIGATION PONDS  =           0.0000
           GW IRRIGATION =           0.0000             GW IRRIGATION =           0.0000
           SW IRRIGATION =           0.0000             SW IRRIGATION =           0.0000
        SYSTEM LOSSES GW =           0.0000          SYSTEM LOSSES GW =           0.0000
        SYSTEM LOSSES SW =           0.0000          SYSTEM LOSSES SW =           0.0000

                TOTAL IN =  1203775104.0000                  TOTAL IN =           0.0000

          OUT:                                     OUT:
          ----                                     ----
               AG WELLS  =           0.0000                 AG WELLS  =           0.0000
      DIVERSION SEGMENTS =           0.0000        DIVERSION SEGMENTS =           0.0000
       IRRIGATION PONDS  =           0.0000         IRRIGATION PONDS  =           0.0000
           GW IRRIGATION =  1203775104.0000             GW IRRIGATION =           0.0000
           SW IRRIGATION =           0.0000             SW IRRIGATION =           0.0000
        SYSTEM LOSSES GW =           0.0000          SYSTEM LOSSES GW =           0.0000
        SYSTEM LOSSES SW =           0.0000          SYSTEM LOSSES SW =           0.0000

               TOTAL OUT =  1203775104.0000                 TOTAL OUT =           0.0000

                IN - OUT =           0.0000                  IN - OUT =           0.0000

     PERCENT DISCREPANCY =           0.00         PERCENT DISCREPANCY =           0.00



1
  VOLUMETRIC BUDGET FOR ENTIRE MODEL AT END OF TIME STEP   30, STRESS PERIOD  41
  ------------------------------------------------------------------------------

     CUMULATIVE VOLUMES      L**3       RATES FOR THIS TIME STEP      L**3/T
     ------------------                 ------------------------

           IN:                                      IN:
           ---                                      ---
             STORAGE     =  1653472000.0000               STORAGE     =           3.1500
       CONSTANT HEAD     =           0.0000         CONSTANT HEAD     =           0.0000
     HEAD DEP BOUNDS     =    30394038.0000       HEAD DEP BOUNDS     =           0.2905
      STREAM LEAKAGE     =  1275068544.0000        STREAM LEAKAGE     =          13.0582
        UZF RECHARGE     =       73223.9531          UZF RECHARGE     =           0.0000
               GW ET     =           0.0000                 GW ET     =           0.0000
     SURFACE LEAKAGE     =           0.0000       SURFACE LEAKAGE     =           0.0000
           AG WELLS      =           0.0000             AG WELLS      =           0.0000

                TOTAL IN =  2959007744.0000                  TOTAL IN =          16.4987

          OUT:                                     OUT:
          ----                                     ----
             STORAGE     =   704028480.0000               STORAGE     =           7.0739
       CONSTANT HEAD     =           0.0000         CONSTANT HEAD     =           0.0000
     HEAD DEP BOUNDS     =    30402570.0000       HEAD DEP BOUNDS     =           0.2901
      STREAM LEAKAGE     =  1020815296.0000        STREAM LEAKAGE     =           9.1359
        UZF RECHARGE     =           0.0000          UZF RECHARGE     =           0.0000
               GW ET     =           0.0000                 GW ET     =           0.0000
     SURFACE LEAKAGE     =           0.0000       SURFACE LEAKAGE     =           0.0000
           AG WELLS      =  1203775104.0000             AG WELLS      =           0.0000

               TOTAL OUT =  2959021568.0000                 TOTAL OUT =          16.4999

                IN - OUT =      -13824.0000                  IN - OUT =      -1.1215E-03

     PERCENT DISCREPANCY =          -0.00         PERCENT DISCREPANCY =          -0.01






         TIME SUMMARY AT END OF TIME STEP   30 IN STRESS PERIOD   41
                    SECONDS     MINUTES      HOURS       DAYS        YEARS
                    -----------------------------------------------------------
   TIME STEP LENGTH  87667.      1461.1      24.352      1.0147     2.77799E-03
 STRESS PERIOD TIME 2.63000E+06  43833.      730.56      30.440     8.33397E-02
         TOTAL TIME 1.05286E+08 1.75476E+06  29246.      1218.6      3.3363    
1
1
                            STRESS PERIOD NO.   42, LENGTH =   2630000.    
                            -----------------------------------------------

                              NUMBER OF TIME STEPS =    30

                               MULTIPLIER FOR DELT =     1.000

                            INITIAL TIME STEP SIZE =   87666.66    

 REUSING NON-PARAMETER GHB CELLS FROM LAST STRESS PERIOD

      2 GHB CELLS

 REUSING STREAM SEGMENT DATA FROM LAST STRESS PERIOD



            AREAL INFILTRATION RATE
 READING ON UNIT   19 WITH FORMAT: (FREE)              

            1           2           3           4           5           6           7           8           9          10
 ........................................................................................................................
   1   1.0000E-10  2.0000E-10   0.000       0.000       0.000       0.000       0.000       0.000       0.000       0.000    
   2   2.0000E-10  1.0000E-10  2.0000E-10   0.000       0.000      8.0000E-10  8.0000E-10  5.0000E-10   0.000       0.000    
   3    0.000      5.0000E-10  1.0000E-10  1.0000E-10  8.0000E-10  8.0000E-10  5.0000E-10  5.0000E-10   0.000       0.000    
   4   8.0000E-10  5.0000E-10  1.0000E-10  1.0000E-10  1.0000E-10  1.0000E-10  1.0000E-10  1.0000E-10  2.0000E-10   0.000    
   5   8.0000E-10  5.0000E-10  1.0000E-10  1.0000E-10  1.0000E-10  1.0000E-10  1.0000E-10  1.0000E-10  1.0000E-10  1.0000E-10
   6   8.0000E-10  5.0000E-10  5.0000E-10  2.0000E-10  2.0000E-10  1.0000E-10  1.0000E-10  1.0000E-10  1.0000E-10  5.0000E-10
   7   8.0000E-10  5.0000E-10  5.0000E-10  2.0000E-10  2.0000E-10  1.0000E-10  1.0000E-10  2.0000E-10  2.0000E-10   0.000    
   8    0.000      5.0000E-10  5.0000E-10  2.0000E-10  2.0000E-10  1.0000E-10  1.0000E-10  2.0000E-10  5.0000E-10   0.000    
   9    0.000      5.0000E-10  5.0000E-10  2.0000E-10  2.0000E-10  1.0000E-10  1.0000E-10  2.0000E-10  5.0000E-10   0.000    
  10    0.000      5.0000E-10  5.0000E-10  2.0000E-10  2.0000E-10  1.0000E-10  1.0000E-10  2.0000E-10  5.0000E-10  8.0000E-10
  11    0.000      1.0000E-10  1.0000E-10  1.0000E-10  1.0000E-10  1.0000E-10  1.0000E-10  2.0000E-10  5.0000E-10   0.000    
  12   1.0000E-10  1.0000E-10  1.0000E-10  1.0000E-10  1.0000E-10  1.0000E-10  1.0000E-10  1.0000E-10  2.0000E-10   0.000    
  13   1.0000E-10  1.0000E-10  2.0000E-10  2.0000E-10  2.0000E-10  2.0000E-10  2.0000E-10  1.0000E-10  1.0000E-10   0.000    
  14    0.000      2.0000E-10  5.0000E-10  5.0000E-10  5.0000E-10  5.0000E-10  5.0000E-10  2.0000E-10  1.0000E-10   0.000    
  15    0.000       0.000      8.0000E-10  8.0000E-10  8.0000E-10  8.0000E-10   0.000       0.000       0.000       0.000    

                  ET RATE =  5.000000E-08

 USING ET EXTINCTION DEPTH FROM PREVIOUS STRESS PERIOD. CURRENT PERIOD IS:      42

 USING EXTINCTION WATER CONTENT FROM PREVIOUS STRESS PERIOD. CURRENT PERIOD IS:      42

 USING AIR ENTRY PRESSURE FROM PREVIOUS STRESS PERIOD. CURRENT PERIOD IS:      42

 USING ROOT PRESSURE HEAD FROM PREVIOUS STRESS PERIOD. CURRENT PERIOD IS:      42

 USING ROOT ACTIVITY FROM PREVIOUS STRESS PERIOD. CURRENT PERIOD IS:      42

 PROCESSING AG STRESS PERIOD DATA

 READING AG STRESS PERIOD DATA

 READING IRRIGATION SEGMENT

 READING IRRIGATION WELL

 READING SUPPLEMENTAL WELL

 NO IRRPOND OR REUSING IRRPOND DATA FROM LAST STRESS PERIOD

 END PROCESSING AG STRESS PERIOD DATA OPTIONS
 
 SOLVING FOR HEAD 
                                                   Max.-Head-Change                         Max.-Flux-Residual
  Residual-Control   Outer-Iter.   Inner-Iter.     Column Row Layer    Maximum-Head-Change  Column Row Layer    Maximum-Flux-Residual          L2-NORM 
          0                 1           2             5    6     1      -0.1597797294E-01       5    6    1        -0.8630747741E+00      0.2247567000E+01
          0                 2           2             5    6     1       0.1554224627E-02       5    6    1         0.8630773022E-01      0.2247199888E+00
          0                 3           2             5    6     1      -0.1058369004E-03       5    6    1        -0.6041541334E-02      0.1572709643E-01
          0                 4           1             5    6     1       0.4211340682E-05       5    6    1         0.2470993904E-03      0.6430304366E-03

    ------------------------------------------------
       NWT REQUIRED            4 OUTER ITERATIONS 
       AND A TOTAL OF          7 INNER ITERATIONS.
    ------------------------------------------------

 NO OUTPUT CONTROL FOR STRESS PERIOD   42   TIME STEP    1
 
 SOLVING FOR HEAD 
                                                   Max.-Head-Change                         Max.-Flux-Residual
  Residual-Control   Outer-Iter.   Inner-Iter.     Column Row Layer    Maximum-Head-Change  Column Row Layer    Maximum-Flux-Residual          L2-NORM 
          0                 1           2             5    6     1      -0.1538431473E-01       5    6    1        -0.8303945496E+00      0.2183214089E+01
          0                 2           2             5    6     1       0.1496477592E-02       5    6    1         0.8303968813E-01      0.2182888501E+00
          0                 3           1             5    6     1      -0.1019043327E-03       5    6    1        -0.5812778486E-02      0.1527736709E-01
          0                 4           1             5    6     1       0.4054654550E-05       5    6    1         0.2377300652E-03      0.6247173877E-03

    ------------------------------------------------
       NWT REQUIRED            4 OUTER ITERATIONS 
       AND A TOTAL OF          6 INNER ITERATIONS.
    ------------------------------------------------

 NO OUTPUT CONTROL FOR STRESS PERIOD   42   TIME STEP    2
 
 SOLVING FOR HEAD 
                                                   Max.-Head-Change                         Max.-Flux-Residual
  Residual-Control   Outer-Iter.   Inner-Iter.     Column Row Layer    Maximum-Head-Change  Column Row Layer    Maximum-Flux-Residual          L2-NORM 
          0                 1           2             5    6     1      -0.1482343313E-01       5    6    1        -0.7995400791E+00      0.2122140053E+01
          0                 2           2             5    6     1       0.1441899959E-02       5    6    1         0.7995422308E-01      0.2121267454E+00
          0                 3           1             5    6     1      -0.9818780277E-04       5    6    1        -0.5596795982E-02      0.1484628545E-01

    ------------------------------------------------
       NWT REQUIRED            3 OUTER ITERATIONS 
       AND A TOTAL OF          5 INNER ITERATIONS.
    ------------------------------------------------

 NO OUTPUT CONTROL FOR STRESS PERIOD   42   TIME STEP    3
 
 SOLVING FOR HEAD 
                                                   Max.-Head-Change                         Max.-Flux-Residual
  Residual-Control   Outer-Iter.   Inner-Iter.     Column Row Layer    Maximum-Head-Change  Column Row Layer    Maximum-Flux-Residual          L2-NORM 
          0                 1           2             5    7     1      -0.1439360268E-01       5    6    1        -0.7703852727E+00      0.2064135442E+01
          0                 2           2             5    7     1       0.1400106039E-02       5    6    1         0.7703872625E-01      0.2063880569E+00
          0                 3           1             5    7     1      -0.9534205045E-04       5    6    1        -0.5392711275E-02      0.1444495292E-01

    ------------------------------------------------
       NWT REQUIRED            3 OUTER ITERATIONS 
       AND A TOTAL OF          5 INNER ITERATIONS.
    ------------------------------------------------

 NO OUTPUT CONTROL FOR STRESS PERIOD   42   TIME STEP    4
 
 SOLVING FOR HEAD 
                                                   Max.-Head-Change                         Max.-Flux-Residual
  Residual-Control   Outer-Iter.   Inner-Iter.     Column Row Layer    Maximum-Head-Change  Column Row Layer    Maximum-Flux-Residual          L2-NORM 
          0                 1           2             5    7     1      -0.1410790044E-01       5    7    1        -0.7480421761E+00      0.2009195902E+01
          0                 2           2             5    7     1       0.1372314714E-02       5    7    1         0.7480427709E-01      0.2008967977E+00
          0                 3           1             5    7     1      -0.9344956778E-04       5    7    1        -0.5236301103E-02      0.1406073934E-01

    ------------------------------------------------
       NWT REQUIRED            3 OUTER ITERATIONS 
       AND A TOTAL OF          5 INNER ITERATIONS.
    ------------------------------------------------

 NO OUTPUT CONTROL FOR STRESS PERIOD   42   TIME STEP    5
 
 SOLVING FOR HEAD 
                                                   Max.-Head-Change                         Max.-Flux-Residual
  Residual-Control   Outer-Iter.   Inner-Iter.     Column Row Layer    Maximum-Head-Change  Column Row Layer    Maximum-Flux-Residual          L2-NORM 
          0                 1           2             5    7     1      -0.1382688044E-01       5    7    1        -0.7331960699E+00      0.1956879960E+01
          0                 2           2             5    7     1       0.1344978881E-02       5    7    1         0.7331964857E-01      0.1956677229E+00
          0                 3           1             5    7     1      -0.9158810209E-04       5    7    1        -0.5132377226E-02      0.1369494071E-01

    ------------------------------------------------
       NWT REQUIRED            3 OUTER ITERATIONS 
       AND A TOTAL OF          5 INNER ITERATIONS.
    ------------------------------------------------

 NO OUTPUT CONTROL FOR STRESS PERIOD   42   TIME STEP    6
 
 SOLVING FOR HEAD 
                                                   Max.-Head-Change                         Max.-Flux-Residual
  Residual-Control   Outer-Iter.   Inner-Iter.     Column Row Layer    Maximum-Head-Change  Column Row Layer    Maximum-Flux-Residual          L2-NORM 
          0                 1           2             4    7     1      -0.1366411859E-01       5    7    1        -0.7185927398E+00      0.1907015376E+01
          0                 2           2             4    7     1       0.1329142013E-02       5    7    1         0.7185929996E-01      0.1906834739E+00
          0                 3           1             4    7     1      -0.9050968257E-04       5    7    1        -0.5030152919E-02      0.1334624135E-01

    ------------------------------------------------
       NWT REQUIRED            3 OUTER ITERATIONS 
       AND A TOTAL OF          5 INNER ITERATIONS.
    ------------------------------------------------

 NO OUTPUT CONTROL FOR STRESS PERIOD   42   TIME STEP    7
 
 SOLVING FOR HEAD 
                                                   Max.-Head-Change                         Max.-Flux-Residual
  Residual-Control   Outer-Iter.   Inner-Iter.     Column Row Layer    Maximum-Head-Change  Column Row Layer    Maximum-Flux-Residual          L2-NORM 
          0                 1           2             4    7     1      -0.1353777736E-01       4    7    1        -0.7099609891E+00      0.1859431359E+01
          0                 2           2             4    7     1       0.1316852365E-02       4    7    1         0.7099581605E-01      0.1859269475E+00
          0                 3           1             4    7     1      -0.8967280446E-04       4    7    1        -0.4969711954E-02      0.1301328962E-01

    ------------------------------------------------
       NWT REQUIRED            3 OUTER ITERATIONS 
       AND A TOTAL OF          5 INNER ITERATIONS.
    ------------------------------------------------

 NO OUTPUT CONTROL FOR STRESS PERIOD   42   TIME STEP    8
 
 SOLVING FOR HEAD 
                                                   Max.-Head-Change                         Max.-Flux-Residual
  Residual-Control   Outer-Iter.   Inner-Iter.     Column Row Layer    Maximum-Head-Change  Column Row Layer    Maximum-Flux-Residual          L2-NORM 
          0                 1           2             4    7     1      -0.1340622778E-01       4    7    1        -0.7033882838E+00      0.1813980934E+01
          0                 2           2             4    7     1       0.1304056110E-02       4    7    1         0.7033854074E-01      0.1813836957E+00
          0                 3           1             4    7     1      -0.8880142744E-04       4    7    1        -0.4923702715E-02      0.1269559098E-01

    ------------------------------------------------
       NWT REQUIRED            3 OUTER ITERATIONS 
       AND A TOTAL OF          5 INNER ITERATIONS.
    ------------------------------------------------

 NO OUTPUT CONTROL FOR STRESS PERIOD   42   TIME STEP    9
 
 SOLVING FOR HEAD 
                                                   Max.-Head-Change                         Max.-Flux-Residual
  Residual-Control   Outer-Iter.   Inner-Iter.     Column Row Layer    Maximum-Head-Change  Column Row Layer    Maximum-Flux-Residual          L2-NORM 
          0                 1           2             4    7     1      -0.1327031989E-01       4    7    1        -0.6965601268E+00      0.1770523625E+01
          0                 2           2             4    7     1       0.1290835930E-02       4    7    1         0.6965572160E-01      0.1770394665E+00
          0                 3           1             4    7     1      -0.8790118243E-04       4    7    1        -0.4875905369E-02      0.1239160303E-01

    ------------------------------------------------
       NWT REQUIRED            3 OUTER ITERATIONS 
       AND A TOTAL OF          5 INNER ITERATIONS.
    ------------------------------------------------

 NO OUTPUT CONTROL FOR STRESS PERIOD   42   TIME STEP   10
 
 SOLVING FOR HEAD 
                                                   Max.-Head-Change                         Max.-Flux-Residual
  Residual-Control   Outer-Iter.   Inner-Iter.     Column Row Layer    Maximum-Head-Change  Column Row Layer    Maximum-Flux-Residual          L2-NORM 
          0                 1           2             4    7     1      -0.1313045016E-01       4    7    1        -0.6894987087E+00      0.1728937194E+01
          0                 2           2             4    7     1       0.1277230388E-02       4    7    1         0.6894957757E-01      0.1728822170E+00
          0                 3           1             4    7     1      -0.8697469603E-04       4    7    1        -0.4826475301E-02      0.1210074904E-01

    ------------------------------------------------
       NWT REQUIRED            3 OUTER ITERATIONS 
       AND A TOTAL OF          5 INNER ITERATIONS.
    ------------------------------------------------

 NO OUTPUT CONTROL FOR STRESS PERIOD   42   TIME STEP   11
 
 SOLVING FOR HEAD 
                                                   Max.-Head-Change                         Max.-Flux-Residual
  Residual-Control   Outer-Iter.   Inner-Iter.     Column Row Layer    Maximum-Head-Change  Column Row Layer    Maximum-Flux-Residual          L2-NORM 
          0                 1           2             4    7     1      -0.1298712631E-01       4    7    1        -0.6822318805E+00      0.1689104311E+01
          0                 2           2             4    7     1       0.1263288872E-02       4    7    1         0.6822289365E-01      0.1689000996E+00
          0                 3           1             4    7     1      -0.8602533067E-04       4    7    1        -0.4775607413E-02      0.1182210924E-01

    ------------------------------------------------
       NWT REQUIRED            3 OUTER ITERATIONS 
       AND A TOTAL OF          5 INNER ITERATIONS.
    ------------------------------------------------

 NO OUTPUT CONTROL FOR STRESS PERIOD   42   TIME STEP   12
 
 SOLVING FOR HEAD 
                                                   Max.-Head-Change                         Max.-Flux-Residual
  Residual-Control   Outer-Iter.   Inner-Iter.     Column Row Layer    Maximum-Head-Change  Column Row Layer    Maximum-Flux-Residual          L2-NORM 
          0                 1           2             4    7     1      -0.1284068245E-01       4    7    1        -0.6747786734E+00      0.1650914010E+01
          0                 2           2             4    7     1       0.1249043879E-02       4    7    1         0.6747757285E-01      0.1650821494E+00
          0                 3           1             4    7     1      -0.8505529947E-04       4    7    1        -0.4723434936E-02      0.1155495260E-01

    ------------------------------------------------
       NWT REQUIRED            3 OUTER ITERATIONS 
       AND A TOTAL OF          5 INNER ITERATIONS.
    ------------------------------------------------

 NO OUTPUT CONTROL FOR STRESS PERIOD   42   TIME STEP   13
 
 SOLVING FOR HEAD 
                                                   Max.-Head-Change                         Max.-Flux-Residual
  Residual-Control   Outer-Iter.   Inner-Iter.     Column Row Layer    Maximum-Head-Change  Column Row Layer    Maximum-Flux-Residual          L2-NORM 
          0                 1           2             4    7     1      -0.1269169525E-01       4    7    1        -0.6671709970E+00      0.1614265093E+01
          0                 2           2             4    7     1       0.1234551499E-02       4    7    1         0.6671680600E-01      0.1614181169E+00
          0                 3           1             4    7     1      -0.8406842198E-04       4    7    1        -0.4670181220E-02      0.1129853397E-01

    ------------------------------------------------
       NWT REQUIRED            3 OUTER ITERATIONS 
       AND A TOTAL OF          5 INNER ITERATIONS.
    ------------------------------------------------

 NO OUTPUT CONTROL FOR STRESS PERIOD   42   TIME STEP   14
 
 SOLVING FOR HEAD 
                                                   Max.-Head-Change                         Max.-Flux-Residual
  Residual-Control   Outer-Iter.   Inner-Iter.     Column Row Layer    Maximum-Head-Change  Column Row Layer    Maximum-Flux-Residual          L2-NORM 
          0                 1           2             4    7     1      -0.1254057090E-01       4    7    1        -0.6594314565E+00      0.1579072634E+01
          0                 2           2             4    7     1       0.1215390829E-02       4    7    1         0.6563679338E-01      0.1577449436E+00
          0                 3           1             4    7     1      -0.8276362129E-04       4    7    1        -0.4594578272E-02      0.1104153183E-01

    ------------------------------------------------
       NWT REQUIRED            3 OUTER ITERATIONS 
       AND A TOTAL OF          5 INNER ITERATIONS.
    ------------------------------------------------

 NO OUTPUT CONTROL FOR STRESS PERIOD   42   TIME STEP   15
 
 SOLVING FOR HEAD 
                                                   Max.-Head-Change                         Max.-Flux-Residual
  Residual-Control   Outer-Iter.   Inner-Iter.     Column Row Layer    Maximum-Head-Change  Column Row Layer    Maximum-Flux-Residual          L2-NORM 
          0                 1           2             4    7     1      -0.1240163356E-01       4    7    1        -0.6518190610E+00      0.1545386474E+01
          0                 2           2             4    7     1       0.1206339393E-02       4    7    1         0.6518181868E-01      0.1545319959E+00
          0                 3           1             4    7     1      -0.8214725344E-04       4    7    1        -0.4562730117E-02      0.1081665642E-01

    ------------------------------------------------
       NWT REQUIRED            3 OUTER ITERATIONS 
       AND A TOTAL OF          5 INNER ITERATIONS.
    ------------------------------------------------

 NO OUTPUT CONTROL FOR STRESS PERIOD   42   TIME STEP   16
 
 SOLVING FOR HEAD 
                                                   Max.-Head-Change                         Max.-Flux-Residual
  Residual-Control   Outer-Iter.   Inner-Iter.     Column Row Layer    Maximum-Head-Change  Column Row Layer    Maximum-Flux-Residual          L2-NORM 
          0                 1           2             4    7     1      -0.1225597185E-01       4    7    1        -0.6443626462E+00      0.1513123108E+01
          0                 2           2             4    7     1       0.1192170404E-02       4    7    1         0.6443617179E-01      0.1513062992E+00
          0                 3           1             4    7     1      -0.8118239805E-04       4    7    1        -0.4510534846E-02      0.1059092646E-01

    ------------------------------------------------
       NWT REQUIRED            3 OUTER ITERATIONS 
       AND A TOTAL OF          5 INNER ITERATIONS.
    ------------------------------------------------

 NO OUTPUT CONTROL FOR STRESS PERIOD   42   TIME STEP   17
 
 SOLVING FOR HEAD 
                                                   Max.-Head-Change                         Max.-Flux-Residual
  Residual-Control   Outer-Iter.   Inner-Iter.     Column Row Layer    Maximum-Head-Change  Column Row Layer    Maximum-Flux-Residual          L2-NORM 
          0                 1           2             4    7     1      -0.1210854779E-01       4    7    1        -0.6367955447E+00      0.1482074213E+01
          0                 2           2             4    7     1       0.1177830000E-02       4    7    1         0.6367945704E-01      0.1482020280E+00
          0                 3           1             4    7     1      -0.8020587087E-04       4    7    1        -0.4457564856E-02      0.1037373341E-01

    ------------------------------------------------
       NWT REQUIRED            3 OUTER ITERATIONS 
       AND A TOTAL OF          5 INNER ITERATIONS.
    ------------------------------------------------

 NO OUTPUT CONTROL FOR STRESS PERIOD   42   TIME STEP   18
 
 SOLVING FOR HEAD 
                                                   Max.-Head-Change                         Max.-Flux-Residual
  Residual-Control   Outer-Iter.   Inner-Iter.     Column Row Layer    Maximum-Head-Change  Column Row Layer    Maximum-Flux-Residual          L2-NORM 
          0                 1           2             4    7     1      -0.1195956986E-01       4    7    1        -0.6291297813E+00      0.1452171457E+01
          0                 2           2             4    7     1       0.1163338456E-02       4    7    1         0.6291287686E-01      0.1452122046E+00
          0                 3           1             4    7     1      -0.7921905066E-04       4    7    1        -0.4403904233E-02      0.1016437106E-01

    ------------------------------------------------
       NWT REQUIRED            3 OUTER ITERATIONS 
       AND A TOTAL OF          5 INNER ITERATIONS.
    ------------------------------------------------

 NO OUTPUT CONTROL FOR STRESS PERIOD   42   TIME STEP   19
 
 SOLVING FOR HEAD 
                                                   Max.-Head-Change                         Max.-Flux-Residual
  Residual-Control   Outer-Iter.   Inner-Iter.     Column Row Layer    Maximum-Head-Change  Column Row Layer    Maximum-Flux-Residual          L2-NORM 
          0                 1           2             4    7     1      -0.1180949762E-01       4    7    1        -0.6213907484E+00      0.1423353066E+01
          0                 2           2             4    7     1       0.1148740476E-02       4    7    1         0.6213897036E-01      0.1423308421E+00
          0                 3           1             4    7     1      -0.7822498292E-04       4    7    1        -0.4349730797E-02      0.9962783330E-02

    ------------------------------------------------
       NWT REQUIRED            3 OUTER ITERATIONS 
       AND A TOTAL OF          5 INNER ITERATIONS.
    ------------------------------------------------

 NO OUTPUT CONTROL FOR STRESS PERIOD   42   TIME STEP   20
 
 SOLVING FOR HEAD 
                                                   Max.-Head-Change                         Max.-Flux-Residual
  Residual-Control   Outer-Iter.   Inner-Iter.     Column Row Layer    Maximum-Head-Change  Column Row Layer    Maximum-Flux-Residual          L2-NORM 
          0                 1           2             4    7     1      -0.1165862252E-01       4    7    1        -0.6135949820E+00      0.1395563590E+01
          0                 2           2             4    7     1       0.1134064408E-02       4    7    1         0.6135939114E-01      0.1395523272E+00
          0                 3           1             4    7     1      -0.7722559761E-04       4    7    1        -0.4295160251E-02      0.9768328184E-02

    ------------------------------------------------
       NWT REQUIRED            3 OUTER ITERATIONS 
       AND A TOTAL OF          5 INNER ITERATIONS.
    ------------------------------------------------

 NO OUTPUT CONTROL FOR STRESS PERIOD   42   TIME STEP   21
 
 SOLVING FOR HEAD 
                                                   Max.-Head-Change                         Max.-Flux-Residual
  Residual-Control   Outer-Iter.   Inner-Iter.     Column Row Layer    Maximum-Head-Change  Column Row Layer    Maximum-Flux-Residual          L2-NORM 
          0                 1           2             4    7     1      -0.1150721234E-01       4    7    1        -0.6057575927E+00      0.1368741060E+01
          0                 2           2             4    7     1       0.1119336298E-02       4    7    1         0.6057565017E-01      0.1368704443E+00
          0                 3           1             4    7     1      -0.7622266799E-04       4    7    1        -0.4240298362E-02      0.9580623262E-02

    ------------------------------------------------
       NWT REQUIRED            3 OUTER ITERATIONS 
       AND A TOTAL OF          5 INNER ITERATIONS.
    ------------------------------------------------

 NO OUTPUT CONTROL FOR STRESS PERIOD   42   TIME STEP   22
 
 SOLVING FOR HEAD 
                                                   Max.-Head-Change                         Max.-Flux-Residual
  Residual-Control   Outer-Iter.   Inner-Iter.     Column Row Layer    Maximum-Head-Change  Column Row Layer    Maximum-Flux-Residual          L2-NORM 
          0                 1           2             4    7     1      -0.1135538225E-01       4    7    1        -0.5978851730E+00      0.1342840884E+01
          0                 2           2             4    7     1       0.1104567351E-02       4    7    1         0.5978840665E-01      0.1342807178E+00
          0                 3           1             4    7     1      -0.7521695759E-04       4    7    1        -0.4185191316E-02      0.9399347669E-02

    ------------------------------------------------
       NWT REQUIRED            3 OUTER ITERATIONS 
       AND A TOTAL OF          5 INNER ITERATIONS.
    ------------------------------------------------

 NO OUTPUT CONTROL FOR STRESS PERIOD   42   TIME STEP   23
 
 SOLVING FOR HEAD 
                                                   Max.-Head-Change                         Max.-Flux-Residual
  Residual-Control   Outer-Iter.   Inner-Iter.     Column Row Layer    Maximum-Head-Change  Column Row Layer    Maximum-Flux-Residual          L2-NORM 
          0                 1           2             4    7     1      -0.1120363591E-01       4    7    1        -0.5900055688E+00      0.1317825280E+01
          0                 2           2             4    7     1       0.1089806556E-02       4    7    1         0.5900044509E-01      0.1317795344E+00
          0                 3           1             4    7     1      -0.7421180289E-04       4    7    1        -0.4130034010E-02      0.9224361059E-02

    ------------------------------------------------
       NWT REQUIRED            3 OUTER ITERATIONS 
       AND A TOTAL OF          5 INNER ITERATIONS.
    ------------------------------------------------

 NO OUTPUT CONTROL FOR STRESS PERIOD   42   TIME STEP   24
 
 SOLVING FOR HEAD 
                                                   Max.-Head-Change                         Max.-Flux-Residual
  Residual-Control   Outer-Iter.   Inner-Iter.     Column Row Layer    Maximum-Head-Change  Column Row Layer    Maximum-Flux-Residual          L2-NORM 
          0                 1           2             4    7     1      -0.1105177311E-01       4    7    1        -0.5821084376E+00      0.1293634096E+01
          0                 2           2             4    7     1       0.1075034439E-02       4    7    1         0.5821073126E-01      0.1293606168E+00
          0                 3           1             4    7     1      -0.7320587640E-04       4    7    1        -0.4074754026E-02      0.9055004812E-02

    ------------------------------------------------
       NWT REQUIRED            3 OUTER ITERATIONS 
       AND A TOTAL OF          5 INNER ITERATIONS.
    ------------------------------------------------

 NO OUTPUT CONTROL FOR STRESS PERIOD   42   TIME STEP   25
 
 SOLVING FOR HEAD 
                                                   Max.-Head-Change                         Max.-Flux-Residual
  Residual-Control   Outer-Iter.   Inner-Iter.     Column Row Layer    Maximum-Head-Change  Column Row Layer    Maximum-Flux-Residual          L2-NORM 
          0                 1           2             4    7     1      -0.1090040336E-01       4    7    1        -0.5742271456E+00      0.1270241422E+01
          0                 2           2             4    7     1       0.1060310288E-02       4    7    1         0.5742260173E-01      0.1270215784E+00
          0                 3           1             4    7     1      -0.7220321647E-04       4    7    1        -0.4019584942E-02      0.8891304396E-02

    ------------------------------------------------
       NWT REQUIRED            3 OUTER ITERATIONS 
       AND A TOTAL OF          5 INNER ITERATIONS.
    ------------------------------------------------

 NO OUTPUT CONTROL FOR STRESS PERIOD   42   TIME STEP   26
 
 SOLVING FOR HEAD 
                                                   Max.-Head-Change                         Max.-Flux-Residual
  Residual-Control   Outer-Iter.   Inner-Iter.     Column Row Layer    Maximum-Head-Change  Column Row Layer    Maximum-Flux-Residual          L2-NORM 
          0                 1           2             4    7     1      -0.1074955782E-01       4    7    1        -0.5663641303E+00      0.1247606708E+01
          0                 2           2             4    7     1       0.1045637130E-02       4    7    1         0.5663630014E-01      0.1247583085E+00
          0                 3           1             4    7     1      -0.7120402866E-04       4    7    1        -0.3964543797E-02      0.8732902447E-02

    ------------------------------------------------
       NWT REQUIRED            3 OUTER ITERATIONS 
       AND A TOTAL OF          5 INNER ITERATIONS.
    ------------------------------------------------

 NO OUTPUT CONTROL FOR STRESS PERIOD   42   TIME STEP   27
 
 SOLVING FOR HEAD 
                                                   Max.-Head-Change                         Max.-Flux-Residual
  Residual-Control   Outer-Iter.   Inner-Iter.     Column Row Layer    Maximum-Head-Change  Column Row Layer    Maximum-Flux-Residual          L2-NORM 
          0                 1           2             4    7     1      -0.1059926423E-01       4    7    1        -0.5585210074E+00      0.1225693499E+01
          0                 2           2             4    7     1       0.1031017669E-02       4    7    1         0.5585198810E-01      0.1225672050E+00
          0                 3           1             4    7     1      -0.7020849722E-04       4    7    1        -0.3909641916E-02      0.8579544672E-02

    ------------------------------------------------
       NWT REQUIRED            3 OUTER ITERATIONS 
       AND A TOTAL OF          5 INNER ITERATIONS.
    ------------------------------------------------

 NO OUTPUT CONTROL FOR STRESS PERIOD   42   TIME STEP   28
 
 SOLVING FOR HEAD 
                                                   Max.-Head-Change                         Max.-Flux-Residual
  Residual-Control   Outer-Iter.   Inner-Iter.     Column Row Layer    Maximum-Head-Change  Column Row Layer    Maximum-Flux-Residual          L2-NORM 
          0                 1           2             4    7     1      -0.1044980566E-01       4    7    1        -0.5507137973E+00      0.1204461760E+01
          0                 2           2             4    7     1       0.1016456750E-02       4    7    1         0.5507126759E-01      0.1203897924E+00
          0                 3           1             4    7     1      -0.6921695265E-04       4    7    1        -0.3854991462E-02      0.8427135088E-02

    ------------------------------------------------
       NWT REQUIRED            3 OUTER ITERATIONS 
       AND A TOTAL OF          5 INNER ITERATIONS.
    ------------------------------------------------

 NO OUTPUT CONTROL FOR STRESS PERIOD   42   TIME STEP   29
 
 SOLVING FOR HEAD 
                                                   Max.-Head-Change                         Max.-Flux-Residual
  Residual-Control   Outer-Iter.   Inner-Iter.     Column Row Layer    Maximum-Head-Change  Column Row Layer    Maximum-Flux-Residual          L2-NORM 
          0                 1           2             4    7     1      -0.1030131503E-01       4    7    1        -0.5429438009E+00      0.1183933831E+01
          0                 2           2             4    7     1       0.1002035377E-02       4    7    1         0.5429426881E-01      0.1183916047E+00
          0                 3           1             4    7     1      -0.6823491052E-04       4    7    1        -0.3800601515E-02      0.8287249815E-02

    ------------------------------------------------
       NWT REQUIRED            3 OUTER ITERATIONS 
       AND A TOTAL OF          5 INNER ITERATIONS.
    ------------------------------------------------

 NO OUTPUT CONTROL FOR STRESS PERIOD   42   TIME STEP   30



 STREAM LISTING     PERIOD     42   STEP       30

 LAYER ROW COL. STREAM  RCH.  FLOW INTO     FLOW TO   FLOW OUT OF   OVRLND.     DIRECT     STREAM       STREAM     STREAM     STREAM   STREAMBED  STREAMBED
                SEG.NO.  NO.  STRM. RCH.    AQUIFER    STRM. RCH.    RUNOFF     PRECIP       ET          HEAD       DEPTH      WIDTH   CONDCTNC.   GRADIENT

   1    1    1     1     1    2.3624E+01  2.3872E-01   2.3386E+01  0.000E+00  0.000E+00  0.000E+00  1.09421E+03  1.157E+00  1.276E+01  5.742E-02  1.386E+00
   1    2    2     1     2    2.3386E+01  3.6908E-01   2.3016E+01  0.000E+00  0.000E+00  0.000E+00  1.08921E+03  1.153E+00  1.270E+01  8.888E-02  1.384E+00
   1    3    3     1     3    2.3016E+01  3.1417E-01   2.2702E+01  0.000E+00  0.000E+00  0.000E+00  1.08357E+03  1.147E+00  1.263E+01  7.575E-02  1.382E+00
   1    3    4     1     4    2.2702E+01  2.8881E-01   2.2414E+01  0.000E+00  0.000E+00  0.000E+00  1.07855E+03  1.143E+00  1.256E+01  6.972E-02  1.381E+00
   1    4    5     2     1    2.0414E+01  3.1702E-01   2.0096E+01  0.000E+00  0.000E+00  0.000E+00  1.07300E+03  1.064E+00  1.200E+01  7.800E-02  1.355E+00
   1    5    6     2     2    2.0096E+01  2.4333E-01   1.9853E+01  0.000E+00  0.000E+00  0.000E+00  1.06756E+03  1.055E+00  1.200E+01  6.000E-02  1.352E+00
   1    6    6     2     3    1.9853E+01  2.4286E-01   1.9610E+01  0.000E+00  0.000E+00  0.000E+00  1.06284E+03  1.048E+00  1.200E+01  6.000E-02  1.349E+00
   1    7    6     2     4    1.9610E+01  2.4240E-01   1.9368E+01  0.000E+00  0.000E+00  0.000E+00  1.05812E+03  1.040E+00  1.200E+01  6.000E-02  1.347E+00
   1    8    6     2     5    1.9368E+01  2.4193E-01   1.9126E+01  0.000E+00  0.000E+00  0.000E+00  1.05339E+03  1.032E+00  1.200E+01  6.000E-02  1.344E+00
   1    3    5     3     1    2.0000E+00  2.8252E-01   1.7175E+00  0.000E+00  0.000E+00  0.000E+00  1.07555E+03  1.909E+00  9.636E+00  7.227E-02  1.955E+00
   1    3    6     3     2    1.7175E+00  2.4905E-01   1.4684E+00  0.000E+00  0.000E+00  0.000E+00  1.07264E+03  1.727E+00  8.909E+00  6.682E-02  1.864E+00
   1    3    7     3     3    1.4684E+00  1.9718E-01   1.2712E+00  0.000E+00  0.000E+00  0.000E+00  1.06987E+03  1.555E+00  8.218E+00  5.547E-02  1.777E+00
   1    4    8     3     4    1.2712E+00  2.2567E-01   1.0456E+00  0.000E+00  0.000E+00  0.000E+00  1.06682E+03  1.364E+00  7.455E+00  6.709E-02  1.682E+00
   1    5    8     3     5    1.0456E+00  1.5790E-01   8.8768E-01  0.000E+00  0.000E+00  0.000E+00  1.06362E+03  1.164E+00  6.655E+00  4.991E-02  1.582E+00
   1    6    8     3     6    8.8768E-01  5.5980E-02   8.3170E-01  0.000E+00  0.000E+00  0.000E+00  1.06158E+03  1.036E+00  6.145E+00  1.844E-02  1.518E+00
   1    5   10     4     1    1.0000E+01  9.0919E-02   9.9091E+00  0.000E+00  0.000E+00  0.000E+00  1.07836E+03  6.368E-01  1.000E+01  2.500E-02  1.212E+00
   1    5    9     4     2    9.9091E+00  1.8158E-01   9.7275E+00  0.000E+00  0.000E+00  0.000E+00  1.07154E+03  6.315E-01  1.000E+01  5.000E-02  1.211E+00
   1    6    8     4     3    9.7275E+00  1.2689E-01   9.6006E+00  0.000E+00  0.000E+00  0.000E+00  1.06381E+03  6.256E-01  1.000E+01  3.500E-02  1.209E+00
   1    6    8     5     1    1.0432E+01  2.2686E-01   1.0205E+01  0.000E+00  0.000E+00  0.000E+00  1.05868E+03  6.790E-01  1.542E+01  6.166E-02  1.226E+00
   1    7    7     5     2    1.0205E+01  2.7894E-01   9.9265E+00  0.000E+00  0.000E+00  0.000E+00  1.05417E+03  6.732E-01  1.519E+01  7.594E-02  1.224E+00
   1    8    7     5     3    9.9265E+00  1.9221E-01   9.7343E+00  0.000E+00  0.000E+00  0.000E+00  1.04992E+03  6.676E-01  1.497E+01  5.241E-02  1.223E+00
   1    8    6     5     4    9.7343E+00  1.3577E-01   9.5985E+00  0.000E+00  0.000E+00  0.000E+00  1.04691E+03  6.637E-01  1.482E+01  3.706E-02  1.221E+00
   1    9    6     6     1    2.8725E+01  2.5941E-01   2.8465E+01  0.000E+00  0.000E+00  0.000E+00  1.04405E+03  1.324E+00  1.200E+01  6.000E-02  1.441E+00
   1   10    7     6     2    2.8465E+01  2.5898E-01   2.8206E+01  0.000E+00  0.000E+00  0.000E+00  1.03950E+03  1.316E+00  1.200E+01  6.000E-02  1.439E+00
   1   11    7     6     3    2.8206E+01  2.5855E-01   2.7948E+01  0.000E+00  0.000E+00  0.000E+00  1.03495E+03  1.309E+00  1.200E+01  6.000E-02  1.436E+00
   1   12    7     6     4    2.7948E+01  2.5811E-01   2.7689E+01  0.000E+00  0.000E+00  0.000E+00  1.03039E+03  1.302E+00  1.200E+01  6.000E-02  1.434E+00
   1   13    7     6     5    2.7689E+01  2.0181E-02   2.7669E+01  0.000E+00  0.000E+00  0.000E+00  1.02721E+03  1.298E+00  1.200E+01  2.400E-02  2.803E-01
   1   14    9     7     1    1.5000E+02  1.4068E+00   1.4859E+02  0.000E+00  0.000E+00  0.000E+00  1.03987E+03  2.288E+00  5.529E+01  5.593E-01  8.384E-01
   1   13    8     7     2    1.4859E+02  2.0640E+00   1.4653E+02  0.000E+00  0.000E+00  0.000E+00  1.03478E+03  2.278E+00  5.525E+01  6.147E-01  1.119E+00
   1   13    7     7     3    1.4653E+02  1.8542E+00   1.4467E+02  0.000E+00  0.000E+00  0.000E+00  1.02969E+03  2.268E+00  5.521E+01  5.583E-01  1.107E+00
   1   13    6     8     1    1.7234E+02  1.2950E+00   1.7105E+02  0.000E+00  0.000E+00  0.000E+00  1.02484E+03  2.963E+00  4.297E+01  4.378E-01  9.859E-01
   1   13    5     8     2    1.7105E+02  5.0754E-01   1.7054E+02  0.000E+00  0.000E+00  0.000E+00  1.01858E+03  2.957E+00  4.288E+01  4.370E-01  3.872E-01
   1   13    4     8     3    1.7054E+02 -1.3523E+00   1.7189E+02  0.000E+00  0.000E+00  0.000E+00  1.01234E+03  2.960E+00  4.292E+01  4.374E+00 -1.031E-01
   1   13    3     8     4    1.7189E+02 -3.1206E+00   1.7501E+02  0.000E+00  0.000E+00  0.000E+00  1.00610E+03  2.975E+00  4.313E+01  4.395E+00 -2.367E-01
   1   13    2     8     5    1.7501E+02 -2.4486E+00   1.7746E+02  0.000E+00  0.000E+00  0.000E+00  9.99867E+02  2.992E+00  4.339E+01  4.422E+00 -1.846E-01
   1   13    1     8     6    1.7746E+02 -1.9588E+00   1.7942E+02  0.000E+00  0.000E+00  0.000E+00  9.94881E+02  3.006E+00  4.359E+01  2.665E+00 -2.450E-01
   1    8    6     9     1    0.0000E+00  0.0000E+00   0.0000E+00  0.000E+00  0.000E+00  0.000E+00  1.07875E+03  0.000E+00  4.000E+00  0.000E+00  1.000E+00
   1    8    5     9     2    0.0000E+00  0.0000E+00   0.0000E+00  0.000E+00  0.000E+00  0.000E+00  1.07825E+03  0.000E+00  4.000E+00  0.000E+00  1.000E+00





UNSATURATED ZONE PACKAGE VOLUMETRIC BUDGET FOR  TIME STEP    30 STRESS PERIOD   42
  ------------------------------------------------------------------------------



     CUMULATIVE VOLUMES      L**3       RATES FOR THIS TIME STEP      L**3/T
     ------------------                 ------------------------

           IN:                                      IN:
           ---                                      ---
        INFILTRATION =  1314883043.8793          INFILTRATION =           8.3175

          OUT:                                     OUT:
          ----                                     ----
              UZF ET =  1314057478.9061                UZF ET =           8.3175
        UZF RECHARGE =       73224.0000          UZF RECHARGE =       0.0000E+00

            IN - OUT =      752340.9732              IN - OUT =       0.0000E+00

          STORAGE:                                 STORAGE:
          --------                                 --------
      STORAGE CHANGE =      752341.1305        STORAGE CHANGE =       8.2996E-17

 PERCENT DISCREPANCY IS DIFFERENCE BETWEEN IN-OUT MINUS CHANGE IN STORAGE
 DIVIDED BY THE AVERAGE OF IN AND OUT TIMES 100

 PERCENT DISCREPANCY =           0.00     PERCENT DISCREPANCY =           0.00






1
  VOLUMETRIC BUDGET FOR AGRICULTURAL FIELDS AT  END OF TIME STEP   30, STRESS PERIOD  42
  ------------------------------------------------------------------------------

     CUMULATIVE VOLUMES      L**3       RATES FOR THIS TIME STEP      L**3/T
     ------------------                 ------------------------

           IN:                                      IN:
           ---                                      ---
               AG WELLS  =  1223420544.0000                 AG WELLS  =           7.4700
      DIVERSION SEGMENTS =           0.0000        DIVERSION SEGMENTS =           0.0000
       IRRIGATION PONDS  =           0.0000         IRRIGATION PONDS  =           0.0000
           GW IRRIGATION =           0.0000             GW IRRIGATION =           0.0000
           SW IRRIGATION =           0.0000             SW IRRIGATION =           0.0000
        SYSTEM LOSSES GW =           0.0000          SYSTEM LOSSES GW =           0.0000
        SYSTEM LOSSES SW =           0.0000          SYSTEM LOSSES SW =           0.0000

                TOTAL IN =  1223420544.0000                  TOTAL IN =           7.4700

          OUT:                                     OUT:
          ----                                     ----
               AG WELLS  =           0.0000                 AG WELLS  =           0.0000
      DIVERSION SEGMENTS =           0.0000        DIVERSION SEGMENTS =           0.0000
       IRRIGATION PONDS  =           0.0000         IRRIGATION PONDS  =           0.0000
           GW IRRIGATION =  1223420544.0000             GW IRRIGATION =           7.4700
           SW IRRIGATION =           0.0000             SW IRRIGATION =           0.0000
        SYSTEM LOSSES GW =           0.0000          SYSTEM LOSSES GW =           0.0000
        SYSTEM LOSSES SW =           0.0000          SYSTEM LOSSES SW =           0.0000

               TOTAL OUT =  1223420544.0000                 TOTAL OUT =           7.4700

                IN - OUT =           0.0000                  IN - OUT =           0.0000

     PERCENT DISCREPANCY =           0.00         PERCENT DISCREPANCY =           0.00



1
  VOLUMETRIC BUDGET FOR ENTIRE MODEL AT END OF TIME STEP   30, STRESS PERIOD  42
  ------------------------------------------------------------------------------

     CUMULATIVE VOLUMES      L**3       RATES FOR THIS TIME STEP      L**3/T
     ------------------                 ------------------------

           IN:                                      IN:
           ---                                      ---
             STORAGE     =  1669808640.0000               STORAGE     =           5.0257
       CONSTANT HEAD     =           0.0000         CONSTANT HEAD     =           0.0000
     HEAD DEP BOUNDS     =    31158134.0000       HEAD DEP BOUNDS     =           0.2906
      STREAM LEAKAGE     =  1309446272.0000        STREAM LEAKAGE     =          13.0825
        UZF RECHARGE     =       73223.9531          UZF RECHARGE     =           0.0000
               GW ET     =           0.0000                 GW ET     =           0.0000
     SURFACE LEAKAGE     =           0.0000       SURFACE LEAKAGE     =           0.0000
           AG WELLS      =           0.0000             AG WELLS      =           0.0000

                TOTAL IN =  3010486272.0000                  TOTAL IN =          18.3988

          OUT:                                     OUT:
          ----                                     ----
             STORAGE     =   711528832.0000               STORAGE     =           1.7582
       CONSTANT HEAD     =           0.0000         CONSTANT HEAD     =           0.0000
     HEAD DEP BOUNDS     =    31164370.0000       HEAD DEP BOUNDS     =           0.2894
      STREAM LEAKAGE     =  1044383168.0000        STREAM LEAKAGE     =           8.8803
        UZF RECHARGE     =           0.0000          UZF RECHARGE     =           0.0000
               GW ET     =           0.0000                 GW ET     =           0.0000
     SURFACE LEAKAGE     =           0.0000       SURFACE LEAKAGE     =           0.0000
           AG WELLS      =  1223420544.0000             AG WELLS      =           7.4700

               TOTAL OUT =  3010497024.0000                 TOTAL OUT =          18.3979

                IN - OUT =      -10752.0000                  IN - OUT =       9.4032E-04

     PERCENT DISCREPANCY =          -0.00         PERCENT DISCREPANCY =           0.01






         TIME SUMMARY AT END OF TIME STEP   30 IN STRESS PERIOD   42
                    SECONDS     MINUTES      HOURS       DAYS        YEARS
                    -----------------------------------------------------------
   TIME STEP LENGTH  87667.      1461.1      24.352      1.0147     2.77799E-03
 STRESS PERIOD TIME 2.63000E+06  43833.      730.56      30.440     8.33397E-02
         TOTAL TIME 1.07916E+08 1.79859E+06  29977.      1249.0      3.4196    
1
1
                            STRESS PERIOD NO.   43, LENGTH =   2630000.    
                            -----------------------------------------------

                              NUMBER OF TIME STEPS =    30

                               MULTIPLIER FOR DELT =     1.000

                            INITIAL TIME STEP SIZE =   87666.66    

 REUSING NON-PARAMETER GHB CELLS FROM LAST STRESS PERIOD

      2 GHB CELLS

 REUSING STREAM SEGMENT DATA FROM LAST STRESS PERIOD



            AREAL INFILTRATION RATE
 READING ON UNIT   19 WITH FORMAT: (FREE)              

            1           2           3           4           5           6           7           8           9          10
 ........................................................................................................................
   1   1.0000E-10  2.0000E-10   0.000       0.000       0.000       0.000       0.000       0.000       0.000       0.000    
   2   2.0000E-10  1.0000E-10  2.0000E-10   0.000       0.000      8.0000E-10  8.0000E-10  5.0000E-10   0.000       0.000    
   3    0.000      5.0000E-10  1.0000E-10  1.0000E-10  8.0000E-10  8.0000E-10  5.0000E-10  5.0000E-10   0.000       0.000    
   4   8.0000E-10  5.0000E-10  1.0000E-10  1.0000E-10  1.0000E-10  1.0000E-10  1.0000E-10  1.0000E-10  2.0000E-10   0.000    
   5   8.0000E-10  5.0000E-10  1.0000E-10  1.0000E-10  1.0000E-10  1.0000E-10  1.0000E-10  1.0000E-10  1.0000E-10  1.0000E-10
   6   8.0000E-10  5.0000E-10  5.0000E-10  2.0000E-10  2.0000E-10  1.0000E-10  1.0000E-10  1.0000E-10  1.0000E-10  5.0000E-10
   7   8.0000E-10  5.0000E-10  5.0000E-10  2.0000E-10  2.0000E-10  1.0000E-10  1.0000E-10  2.0000E-10  2.0000E-10   0.000    
   8    0.000      5.0000E-10  5.0000E-10  2.0000E-10  2.0000E-10  1.0000E-10  1.0000E-10  2.0000E-10  5.0000E-10   0.000    
   9    0.000      5.0000E-10  5.0000E-10  2.0000E-10  2.0000E-10  1.0000E-10  1.0000E-10  2.0000E-10  5.0000E-10   0.000    
  10    0.000      5.0000E-10  5.0000E-10  2.0000E-10  2.0000E-10  1.0000E-10  1.0000E-10  2.0000E-10  5.0000E-10  8.0000E-10
  11    0.000      1.0000E-10  1.0000E-10  1.0000E-10  1.0000E-10  1.0000E-10  1.0000E-10  2.0000E-10  5.0000E-10   0.000    
  12   1.0000E-10  1.0000E-10  1.0000E-10  1.0000E-10  1.0000E-10  1.0000E-10  1.0000E-10  1.0000E-10  2.0000E-10   0.000    
  13   1.0000E-10  1.0000E-10  2.0000E-10  2.0000E-10  2.0000E-10  2.0000E-10  2.0000E-10  1.0000E-10  1.0000E-10   0.000    
  14    0.000      2.0000E-10  5.0000E-10  5.0000E-10  5.0000E-10  5.0000E-10  5.0000E-10  2.0000E-10  1.0000E-10   0.000    
  15    0.000       0.000      8.0000E-10  8.0000E-10  8.0000E-10  8.0000E-10   0.000       0.000       0.000       0.000    

                  ET RATE =  1.500000E-07

 USING ET EXTINCTION DEPTH FROM PREVIOUS STRESS PERIOD. CURRENT PERIOD IS:      43

 USING EXTINCTION WATER CONTENT FROM PREVIOUS STRESS PERIOD. CURRENT PERIOD IS:      43

 USING AIR ENTRY PRESSURE FROM PREVIOUS STRESS PERIOD. CURRENT PERIOD IS:      43

 USING ROOT PRESSURE HEAD FROM PREVIOUS STRESS PERIOD. CURRENT PERIOD IS:      43

 USING ROOT ACTIVITY FROM PREVIOUS STRESS PERIOD. CURRENT PERIOD IS:      43

 PROCESSING AG STRESS PERIOD DATA

 READING AG STRESS PERIOD DATA

 READING IRRIGATION SEGMENT

 READING IRRIGATION WELL

 READING SUPPLEMENTAL WELL

 NO IRRPOND OR REUSING IRRPOND DATA FROM LAST STRESS PERIOD

 END PROCESSING AG STRESS PERIOD DATA OPTIONS
 
 SOLVING FOR HEAD 
                                                   Max.-Head-Change                         Max.-Flux-Residual
  Residual-Control   Outer-Iter.   Inner-Iter.     Column Row Layer    Maximum-Head-Change  Column Row Layer    Maximum-Flux-Residual          L2-NORM 
          0                 1           2             4    7     1      -0.5804131721E-01       4    7    1        -0.3035236283E+01      0.7175481240E+01
          0                 2           2             4    7     1       0.5645815751E-02       4    7    1         0.3035219045E+00      0.7179329808E+00
          0                 3           2             4    7     1      -0.3844593869E-03       4    7    1        -0.2124655880E-01      0.5025534696E-01
          0                 4           1             4    7     1       0.1529799747E-04       4    7    1         0.8689853858E-03      0.2055444782E-02

    ------------------------------------------------
       NWT REQUIRED            4 OUTER ITERATIONS 
       AND A TOTAL OF          7 INNER ITERATIONS.
    ------------------------------------------------

 NO OUTPUT CONTROL FOR STRESS PERIOD   43   TIME STEP    1
 
 SOLVING FOR HEAD 
                                                   Max.-Head-Change                         Max.-Flux-Residual
  Residual-Control   Outer-Iter.   Inner-Iter.     Column Row Layer    Maximum-Head-Change  Column Row Layer    Maximum-Flux-Residual          L2-NORM 
          0                 1           2             4    7     1      -0.5764569112E-01       4    7    1        -0.3015700517E+01      0.7045849499E+01
          0                 2           2             4    7     1       0.5607324552E-02       4    7    1         0.3015681576E+00      0.7045771723E+00
          0                 3           2             4    7     1      -0.3818382919E-03       4    7    1        -0.2110979807E-01      0.4932009196E-01
          0                 4           1             4    7     1       0.1519370188E-04       4    7    1         0.8633918667E-03      0.2017174592E-02

    ------------------------------------------------
       NWT REQUIRED            4 OUTER ITERATIONS 
       AND A TOTAL OF          7 INNER ITERATIONS.
    ------------------------------------------------

 NO OUTPUT CONTROL FOR STRESS PERIOD   43   TIME STEP    2
 
 SOLVING FOR HEAD 
                                                   Max.-Head-Change                         Max.-Flux-Residual
  Residual-Control   Outer-Iter.   Inner-Iter.     Column Row Layer    Maximum-Head-Change  Column Row Layer    Maximum-Flux-Residual          L2-NORM 
          0                 1           2             4    7     1      -0.5723240514E-01       4    7    1        -0.2995150761E+01      0.6920952118E+01
          0                 2           2             4    7     1       0.5567121749E-02       4    7    1         0.2995130310E+00      0.6920894272E+00
          0                 3           2             4    7     1      -0.3791006521E-03       4    7    1        -0.2096594058E-01      0.4844600567E-01
          0                 4           1             4    7     1       0.1508476826E-04       4    7    1         0.8575080776E-03      0.1981477678E-02

    ------------------------------------------------
       NWT REQUIRED            4 OUTER ITERATIONS 
       AND A TOTAL OF          7 INNER ITERATIONS.
    ------------------------------------------------

 NO OUTPUT CONTROL FOR STRESS PERIOD   43   TIME STEP    3
 
 SOLVING FOR HEAD 
                                                   Max.-Head-Change                         Max.-Flux-Residual
  Residual-Control   Outer-Iter.   Inner-Iter.     Column Row Layer    Maximum-Head-Change  Column Row Layer    Maximum-Flux-Residual          L2-NORM 
          0                 1           2             4    7     1      -0.5680297115E-01       4    7    1        -0.2973670461E+01      0.6801771603E+01
          0                 2           2             4    7     1       0.5525347560E-02       4    7    1         0.2973648677E+00      0.6801717178E+00
          0                 3           2             4    7     1      -0.3762560039E-03       4    7    1        -0.2081557034E-01      0.4761181748E-01
          0                 4           1             4    7     1       0.1497157710E-04       4    7    1         0.8513579219E-03      0.1947315298E-02

    ------------------------------------------------
       NWT REQUIRED            4 OUTER ITERATIONS 
       AND A TOTAL OF          7 INNER ITERATIONS.
    ------------------------------------------------

 NO OUTPUT CONTROL FOR STRESS PERIOD   43   TIME STEP    4
 
 SOLVING FOR HEAD 
                                                   Max.-Head-Change                         Max.-Flux-Residual
  Residual-Control   Outer-Iter.   Inner-Iter.     Column Row Layer    Maximum-Head-Change  Column Row Layer    Maximum-Flux-Residual          L2-NORM 
          0                 1           2             4    7     1      -0.5635921195E-01       4    7    1        -0.2951360236E+01      0.6687905370E+01
          0                 2           2             4    7     1       0.5482180164E-02       4    7    1         0.2951337284E+00      0.6687852892E+00
          0                 3           2             4    7     1      -0.3733164813E-03       4    7    1        -0.2065939164E-01      0.4681480426E-01
          0                 4           1             4    7     1       0.1485461068E-04       4    7    1         0.8449702052E-03      0.1914720677E-02

    ------------------------------------------------
       NWT REQUIRED            4 OUTER ITERATIONS 
       AND A TOTAL OF          7 INNER ITERATIONS.
    ------------------------------------------------

 NO OUTPUT CONTROL FOR STRESS PERIOD   43   TIME STEP    5
 
 SOLVING FOR HEAD 
                                                   Max.-Head-Change                         Max.-Flux-Residual
  Residual-Control   Outer-Iter.   Inner-Iter.     Column Row Layer    Maximum-Head-Change  Column Row Layer    Maximum-Flux-Residual          L2-NORM 
          0                 1           2             4    7     1      -0.5590271930E-01       4    7    1        -0.2928307261E+01      0.6578991122E+01
          0                 2           2             4    7     1       0.5437774379E-02       4    7    1         0.2928283294E+00      0.6578940906E+00
          0                 3           2             4    7     1      -0.3702926262E-03       4    7    1        -0.2049801458E-01      0.4605242823E-01
          0                 4           1             4    7     1       0.1473428853E-04       4    7    1         0.8383698578E-03      0.1883531365E-02

    ------------------------------------------------
       NWT REQUIRED            4 OUTER ITERATIONS 
       AND A TOTAL OF          7 INNER ITERATIONS.
    ------------------------------------------------

 NO OUTPUT CONTROL FOR STRESS PERIOD   43   TIME STEP    6
 
 SOLVING FOR HEAD 
                                                   Max.-Head-Change                         Max.-Flux-Residual
  Residual-Control   Outer-Iter.   Inner-Iter.     Column Row Layer    Maximum-Head-Change  Column Row Layer    Maximum-Flux-Residual          L2-NORM 
          0                 1           2             4    7     1      -0.5543471794E-01       4    7    1        -0.2904579502E+01      0.6474690253E+01
          0                 2           2             4    7     1       0.5392249321E-02       4    7    1         0.2904554661E+00      0.6474642049E+00
          0                 3           2             4    7     1      -0.3671925516E-03       4    7    1        -0.2033191493E-01      0.4532236655E-01
          0                 4           1             4    7     1       0.1461093356E-04       4    7    1         0.8315763791E-03      0.1853691886E-02

    ------------------------------------------------
       NWT REQUIRED            4 OUTER ITERATIONS 
       AND A TOTAL OF          7 INNER ITERATIONS.
    ------------------------------------------------

 NO OUTPUT CONTROL FOR STRESS PERIOD   43   TIME STEP    7
 
 SOLVING FOR HEAD 
                                                   Max.-Head-Change                         Max.-Flux-Residual
  Residual-Control   Outer-Iter.   Inner-Iter.     Column Row Layer    Maximum-Head-Change  Column Row Layer    Maximum-Flux-Residual          L2-NORM 
          0                 1           2             4    7     1      -0.5495688621E-01       4    7    1        -0.2880269600E+01      0.6374696720E+01
          0                 2           2             4    7     1       0.5345768228E-02       4    7    1         0.2880244014E+00      0.6374650626E+00
          0                 3           2             4    7     1      -0.3640273717E-03       4    7    1        -0.2016174102E-01      0.4462243415E-01
          0                 4           1             4    7     1       0.1448498788E-04       4    7    1         0.8246162340E-03      0.1825047633E-02

    ------------------------------------------------
       NWT REQUIRED            4 OUTER ITERATIONS 
       AND A TOTAL OF          7 INNER ITERATIONS.
    ------------------------------------------------

 NO OUTPUT CONTROL FOR STRESS PERIOD   43   TIME STEP    8
 
 SOLVING FOR HEAD 
                                                   Max.-Head-Change                         Max.-Flux-Residual
  Residual-Control   Outer-Iter.   Inner-Iter.     Column Row Layer    Maximum-Head-Change  Column Row Layer    Maximum-Flux-Residual          L2-NORM 
          0                 1           2             4    7     1      -0.5447039938E-01       4    7    1        -0.2855442723E+01      0.6278732447E+01
          0                 2           2             4    7     1       0.5298445408E-02       4    7    1         0.2855416512E+00      0.6278688015E+00
          0                 3           2             4    7     1      -0.3608048726E-03       4    7    1        -0.1998794904E-01      0.4395072872E-01
          0                 4           1             4    7     1       0.1435676175E-04       4    7    1         0.8175081475E-03      0.1797581064E-02

    ------------------------------------------------
       NWT REQUIRED            4 OUTER ITERATIONS 
       AND A TOTAL OF          7 INNER ITERATIONS.
    ------------------------------------------------

 NO OUTPUT CONTROL FOR STRESS PERIOD   43   TIME STEP    9
 
 SOLVING FOR HEAD 
                                                   Max.-Head-Change                         Max.-Flux-Residual
  Residual-Control   Outer-Iter.   Inner-Iter.     Column Row Layer    Maximum-Head-Change  Column Row Layer    Maximum-Flux-Residual          L2-NORM 
          0                 1           2             4    7     1      -0.5397635755E-01       4    7    1        -0.2830159812E+01      0.6186538113E+01
          0                 2           2             4    7     1       0.5250387854E-02       4    7    1         0.2830133086E+00      0.6186495184E+00
          0                 3           2             4    7     1      -0.3575323383E-03       4    7    1        -0.1981096544E-01      0.4330537181E-01
          0                 4           1             4    7     1       0.1422654449E-04       4    7    1         0.8102695003E-03      0.1771176293E-02

    ------------------------------------------------
       NWT REQUIRED            4 OUTER ITERATIONS 
       AND A TOTAL OF          7 INNER ITERATIONS.
    ------------------------------------------------

 NO OUTPUT CONTROL FOR STRESS PERIOD   43   TIME STEP   10
 
 SOLVING FOR HEAD 
                                                   Max.-Head-Change                         Max.-Flux-Residual
  Residual-Control   Outer-Iter.   Inner-Iter.     Column Row Layer    Maximum-Head-Change  Column Row Layer    Maximum-Flux-Residual          L2-NORM 
          0                 1           2             4    7     1      -0.5347604760E-01       4    7    1        -0.2804492472E+01      0.6097882082E+01
          0                 2           2             4    7     1       0.5201720733E-02       4    7    1         0.2804465330E+00      0.6097840622E+00
          0                 3           2             4    7     1      -0.3542182938E-03       4    7    1        -0.1963129147E-01      0.4268481853E-01
          0                 4           1             4    7     1       0.1409467550E-04       4    7    1         0.8029208238E-03      0.1745811801E-02

    ------------------------------------------------
       NWT REQUIRED            4 OUTER ITERATIONS 
       AND A TOTAL OF          7 INNER ITERATIONS.
    ------------------------------------------------

 NO OUTPUT CONTROL FOR STRESS PERIOD   43   TIME STEP   11
 
 SOLVING FOR HEAD 
                                                   Max.-Head-Change                         Max.-Flux-Residual
  Residual-Control   Outer-Iter.   Inner-Iter.     Column Row Layer    Maximum-Head-Change  Column Row Layer    Maximum-Flux-Residual          L2-NORM 
          0                 1           2             4    7     1      -0.5297041350E-01       4    7    1        -0.2778492864E+01      0.6012548398E+01
          0                 2           2             4    7     1       0.5152535853E-02       4    7    1         0.2778465399E+00      0.6012508461E+00
          0                 3           2             4    7     1      -0.3508689904E-03       4    7    1        -0.1944929219E-01      0.4208750738E-01
          0                 4           1             4    7     1       0.1396140344E-04       4    7    1         0.7954770333E-03      0.1721383117E-02

    ------------------------------------------------
       NWT REQUIRED            4 OUTER ITERATIONS 
       AND A TOTAL OF          7 INNER ITERATIONS.
    ------------------------------------------------

 NO OUTPUT CONTROL FOR STRESS PERIOD   43   TIME STEP   12
 
 SOLVING FOR HEAD 
                                                   Max.-Head-Change                         Max.-Flux-Residual
  Residual-Control   Outer-Iter.   Inner-Iter.     Column Row Layer    Maximum-Head-Change  Column Row Layer    Maximum-Flux-Residual          L2-NORM 
          0                 1           2             4    7     1      -0.5246058827E-01       4    7    1        -0.2752224494E+01      0.5930340448E+01
          0                 2           2             4    7     1       0.5102943413E-02       4    7    1         0.2752196789E+00      0.5930301582E+00
          0                 3           2             4    7     1      -0.3474919325E-03       4    7    1        -0.1926541207E-01      0.4151206448E-01
          0                 4           1             4    7     1       0.1382702731E-04       4    7    1         0.7879563225E-03      0.1697834651E-02

    ------------------------------------------------
       NWT REQUIRED            4 OUTER ITERATIONS 
       AND A TOTAL OF          7 INNER ITERATIONS.
    ------------------------------------------------

 NO OUTPUT CONTROL FOR STRESS PERIOD   43   TIME STEP   13
 
 SOLVING FOR HEAD 
                                                   Max.-Head-Change                         Max.-Flux-Residual
  Residual-Control   Outer-Iter.   Inner-Iter.     Column Row Layer    Maximum-Head-Change  Column Row Layer    Maximum-Flux-Residual          L2-NORM 
          0                 1           2             4    7     1      -0.5194749855E-01       4    7    1        -0.2725738828E+01      0.5851072816E+01
          0                 2           2             4    7     1       0.5053033540E-02       4    7    1         0.2725710958E+00      0.5851035311E+00
          0                 3           2             4    7     1      -0.3440932577E-03       4    7    1        -0.1908001133E-01      0.4095721057E-01
          0                 4           1             4    7     1       0.1369179095E-04       4    7    1         0.7803734313E-03      0.1675145088E-02

    ------------------------------------------------
       NWT REQUIRED            4 OUTER ITERATIONS 
       AND A TOTAL OF          7 INNER ITERATIONS.
    ------------------------------------------------

 NO OUTPUT CONTROL FOR STRESS PERIOD   43   TIME STEP   14
 
 SOLVING FOR HEAD 
                                                   Max.-Head-Change                         Max.-Flux-Residual
  Residual-Control   Outer-Iter.   Inner-Iter.     Column Row Layer    Maximum-Head-Change  Column Row Layer    Maximum-Flux-Residual          L2-NORM 
          0                 1           2             4    7     1      -0.5143187331E-01       4    7    1        -0.2699076635E+01      0.5774588053E+01
          0                 2           2             4    7     1       0.5002877132E-02       4    7    1         0.2699048670E+00      0.5774551845E+00
          0                 3           2             4    7     1      -0.3406777928E-03       4    7    1        -0.1889337530E-01      0.4042184243E-01
          0                 4           1             4    7     1       0.1355588604E-04       4    7    1         0.7727399875E-03      0.1653248933E-02

    ------------------------------------------------
       NWT REQUIRED            4 OUTER ITERATIONS 
       AND A TOTAL OF          7 INNER ITERATIONS.
    ------------------------------------------------

 NO OUTPUT CONTROL FOR STRESS PERIOD   43   TIME STEP   15
 
 SOLVING FOR HEAD 
                                                   Max.-Head-Change                         Max.-Flux-Residual
  Residual-Control   Outer-Iter.   Inner-Iter.     Column Row Layer    Maximum-Head-Change  Column Row Layer    Maximum-Flux-Residual          L2-NORM 
          0                 1           2             4    7     1      -0.5091451802E-01       4    7    1        -0.2672282991E+01      0.5700722968E+01
          0                 2           2             4    7     1       0.4952552531E-02       4    7    1         0.2672254993E+00      0.5700687752E+00
          0                 3           2             4    7     1      -0.3372508748E-03       4    7    1        -0.1870581953E-01      0.3990478962E-01
          0                 4           1             4    7     1       0.1341952603E-04       4    7    1         0.7650689549E-03      0.1632100343E-02

    ------------------------------------------------
       NWT REQUIRED            4 OUTER ITERATIONS 
       AND A TOTAL OF          7 INNER ITERATIONS.
    ------------------------------------------------

 NO OUTPUT CONTROL FOR STRESS PERIOD   43   TIME STEP   16
 
 SOLVING FOR HEAD 
                                                   Max.-Head-Change                         Max.-Flux-Residual
  Residual-Control   Outer-Iter.   Inner-Iter.     Column Row Layer    Maximum-Head-Change  Column Row Layer    Maximum-Flux-Residual          L2-NORM 
          0                 1           2             4    7     1      -0.5039617483E-01       4    7    1        -0.2645399659E+01      0.5629337227E+01
          0                 2           2             4    7     1       0.4902131917E-02       4    7    1         0.2645371685E+00      0.5629302989E+00
          0                 3           2             4    7     1      -0.3338174174E-03       4    7    1        -0.1851763626E-01      0.3940511013E-01
          0                 4           1             4    7     1       0.1328290549E-04       4    7    1         0.7573722485E-03      0.1611672093E-02

    ------------------------------------------------
       NWT REQUIRED            4 OUTER ITERATIONS 
       AND A TOTAL OF          7 INNER ITERATIONS.
    ------------------------------------------------

 NO OUTPUT CONTROL FOR STRESS PERIOD   43   TIME STEP   17
 
 SOLVING FOR HEAD 
                                                   Max.-Head-Change                         Max.-Flux-Residual
  Residual-Control   Outer-Iter.   Inner-Iter.     Column Row Layer    Maximum-Head-Change  Column Row Layer    Maximum-Flux-Residual          L2-NORM 
          0                 1           2             4    7     1      -0.4987766429E-01       4    7    1        -0.2618472394E+01      0.5560297469E+01
          0                 2           2             4    7     1       0.4851695098E-02       4    7    1         0.2618444495E+00      0.5560264236E+00
          0                 3           2             4    7     1      -0.3303828560E-03       4    7    1        -0.1832914578E-01      0.3892184078E-01
          0                 4           1             4    7     1       0.1314624132E-04       4    7    1         0.7496629880E-03      0.1591899884E-02

    ------------------------------------------------
       NWT REQUIRED            4 OUTER ITERATIONS 
       AND A TOTAL OF          7 INNER ITERATIONS.
    ------------------------------------------------

 NO OUTPUT CONTROL FOR STRESS PERIOD   43   TIME STEP   18
 
 SOLVING FOR HEAD 
                                                   Max.-Head-Change                         Max.-Flux-Residual
  Residual-Control   Outer-Iter.   Inner-Iter.     Column Row Layer    Maximum-Head-Change  Column Row Layer    Maximum-Flux-Residual          L2-NORM 
          0                 1           2             4    7     1      -0.4935934621E-01       4    7    1        -0.2591521917E+01      0.5493482009E+01
          0                 2           2             4    7     1       0.4801277070E-02       4    7    1         0.2591494139E+00      0.5493449690E+00
          0                 3           2             4    7     1      -0.3269495735E-03       4    7    1        -0.1814049310E-01      0.3845414427E-01
          0                 4           1             4    7     1       0.1300962757E-04       4    7    1         0.7419470746E-03      0.1572774557E-02

    ------------------------------------------------
       NWT REQUIRED            4 OUTER ITERATIONS 
       AND A TOTAL OF          7 INNER ITERATIONS.
    ------------------------------------------------

 NO OUTPUT CONTROL FOR STRESS PERIOD   43   TIME STEP   19
 
 SOLVING FOR HEAD 
                                                   Max.-Head-Change                         Max.-Flux-Residual
  Residual-Control   Outer-Iter.   Inner-Iter.     Column Row Layer    Maximum-Head-Change  Column Row Layer    Maximum-Flux-Residual          L2-NORM 
          0                 1           2             4    7     1      -0.4884221064E-01       4    7    1        -0.2564603256E+01      0.5428786479E+01
          0                 2           2             4    7     1       0.4750974127E-02       4    7    1         0.2564575640E+00      0.5428755020E+00
          0                 3           2             4    7     1      -0.3235241271E-03       4    7    1        -0.1795206336E-01      0.3800127935E-01
          0                 4           1             4    7     1       0.1287332593E-04       4    7    1         0.7342402914E-03      0.1554250138E-02

    ------------------------------------------------
       NWT REQUIRED            4 OUTER ITERATIONS 
       AND A TOTAL OF          7 INNER ITERATIONS.
    ------------------------------------------------

 NO OUTPUT CONTROL FOR STRESS PERIOD   43   TIME STEP   20
 
 SOLVING FOR HEAD 
                                                   Max.-Head-Change                         Max.-Flux-Residual
  Residual-Control   Outer-Iter.   Inner-Iter.     Column Row Layer    Maximum-Head-Change  Column Row Layer    Maximum-Flux-Residual          L2-NORM 
          0                 1           2             4    7     1      -0.4832637747E-01       4    7    1        -0.2537724101E+01      0.5366090807E+01
          0                 2           2             4    7     1       0.4700797926E-02       4    7    1         0.2537696683E+00      0.5366060203E+00
          0                 3           2             4    7     1      -0.3201073108E-03       4    7    1        -0.1776391040E-01      0.3756242477E-01
          0                 4           1             4    7     1       0.1273736749E-04       4    7    1         0.7265448244E-03      0.1536303412E-02

    ------------------------------------------------
       NWT REQUIRED            4 OUTER ITERATIONS 
       AND A TOTAL OF          7 INNER ITERATIONS.
    ------------------------------------------------

 NO OUTPUT CONTROL FOR STRESS PERIOD   43   TIME STEP   21
 
 SOLVING FOR HEAD 
                                                   Max.-Head-Change                         Max.-Flux-Residual
  Residual-Control   Outer-Iter.   Inner-Iter.     Column Row Layer    Maximum-Head-Change  Column Row Layer    Maximum-Flux-Residual          L2-NORM 
          0                 1           2             4    7     1      -0.4781261279E-01       4    7    1        -0.2510927035E+01      0.5305312415E+01
          0                 2           2             4    7     1       0.4650822980E-02       4    7    1         0.2510899849E+00      0.5305282558E+00
          0                 3           2             4    7     1      -0.3167041988E-03       4    7    1        -0.1757633226E-01      0.3713697977E-01
          0                 4           1             4    7     1       0.1260195463E-04       4    7    1         0.7188728614E-03      0.1518898834E-02

    ------------------------------------------------
       NWT REQUIRED            4 OUTER ITERATIONS 
       AND A TOTAL OF          7 INNER ITERATIONS.
    ------------------------------------------------

 NO OUTPUT CONTROL FOR STRESS PERIOD   43   TIME STEP   22
 
 SOLVING FOR HEAD 
                                                   Max.-Head-Change                         Max.-Flux-Residual
  Residual-Control   Outer-Iter.   Inner-Iter.     Column Row Layer    Maximum-Head-Change  Column Row Layer    Maximum-Flux-Residual          L2-NORM 
          0                 1           2             4    7     1      -0.4730122159E-01       4    7    1        -0.2484229962E+01      0.5246344841E+01
          0                 2           2             4    7     1       0.4601078952E-02       4    7    1         0.2484203035E+00      0.5246315931E+00
          0                 3           2             4    7     1      -0.3133168111E-03       4    7    1        -0.1738945423E-01      0.3672422127E-01
          0                 4           1             4    7     1       0.1246716750E-04       4    7    1         0.7112295511E-03      0.1502019416E-02

    ------------------------------------------------
       NWT REQUIRED            4 OUTER ITERATIONS 
       AND A TOTAL OF          7 INNER ITERATIONS.
    ------------------------------------------------

 NO OUTPUT CONTROL FOR STRESS PERIOD   43   TIME STEP   23
 
 SOLVING FOR HEAD 
                                                   Max.-Head-Change                         Max.-Flux-Residual
  Residual-Control   Outer-Iter.   Inner-Iter.     Column Row Layer    Maximum-Head-Change  Column Row Layer    Maximum-Flux-Residual          L2-NORM 
          0                 1           2             4    7     1      -0.4679274947E-01       4    7    1        -0.2457663238E+01      0.5189119015E+01
          0                 2           2             4    7     1       0.4551618908E-02       4    7    1         0.2457636596E+00      0.5189090731E+00
          0                 3           2             4    7     1      -0.3099487617E-03       4    7    1        -0.1720348882E-01      0.3632364277E-01
          0                 4           1             4    7     1       0.1233314988E-04       4    7    1         0.7036235697E-03      0.1485637799E-02

    ------------------------------------------------
       NWT REQUIRED            4 OUTER ITERATIONS 
       AND A TOTAL OF          7 INNER ITERATIONS.
    ------------------------------------------------

 NO OUTPUT CONTROL FOR STRESS PERIOD   43   TIME STEP   24
 
 SOLVING FOR HEAD 
                                                   Max.-Head-Change                         Max.-Flux-Residual
  Residual-Control   Outer-Iter.   Inner-Iter.     Column Row Layer    Maximum-Head-Change  Column Row Layer    Maximum-Flux-Residual          L2-NORM 
          0                 1           2             4    7     1      -0.4628742832E-01       4    7    1        -0.2431240610E+01      0.5133552408E+01
          0                 2           2             4    7     1       0.4502465400E-02       4    7    1         0.2431214276E+00      0.5133524862E+00
          0                 3           2             4    7     1      -0.3066015852E-03       4    7    1        -0.1701853220E-01      0.3593468548E-01
          0                 4           1             4    7     1       0.1219996232E-04       4    7    1         0.6960588223E-03      0.1469750251E-02

    ------------------------------------------------
       NWT REQUIRED            4 OUTER ITERATIONS 
       AND A TOTAL OF          7 INNER ITERATIONS.
    ------------------------------------------------

 NO OUTPUT CONTROL FOR STRESS PERIOD   43   TIME STEP   25
 
 SOLVING FOR HEAD 
                                                   Max.-Head-Change                         Max.-Flux-Residual
  Residual-Control   Outer-Iter.   Inner-Iter.     Column Row Layer    Maximum-Head-Change  Column Row Layer    Maximum-Flux-Residual          L2-NORM 
          0                 1           2             4    7     1      -0.4578559202E-01       4    7    1        -0.2404981373E+01      0.5079556373E+01
          0                 2           2             4    7     1       0.4453650901E-02       4    7    1         0.2404955366E+00      0.5079529481E+00
          0                 3           2             4    7     1      -0.3032774938E-03       4    7    1        -0.1683471944E-01      0.3555671278E-01
          0                 4           1             4    7     1       0.1206769326E-04       4    7    1         0.6885408625E-03      0.1454268382E-02

    ------------------------------------------------
       NWT REQUIRED            4 OUTER ITERATIONS 
       AND A TOTAL OF          7 INNER ITERATIONS.
    ------------------------------------------------

 NO OUTPUT CONTROL FOR STRESS PERIOD   43   TIME STEP   26
 
 SOLVING FOR HEAD 
                                                   Max.-Head-Change                         Max.-Flux-Residual
  Residual-Control   Outer-Iter.   Inner-Iter.     Column Row Layer    Maximum-Head-Change  Column Row Layer    Maximum-Flux-Residual          L2-NORM 
          0                 1           2             4    7     1      -0.4528768320E-01       4    7    1        -0.2378910108E+01      0.5027081347E+01
          0                 2           2             4    7     1       0.4405218463E-02       4    7    1         0.2378884444E+00      0.5027055188E+00
          0                 3           2             4    7     1      -0.2999794197E-03       4    7    1        -0.1665222260E-01      0.3518940400E-01
          0                 4           1             4    7     1       0.1193646023E-04       4    7    1         0.6810767391E-03      0.1439248279E-02

    ------------------------------------------------
       NWT REQUIRED            4 OUTER ITERATIONS 
       AND A TOTAL OF          7 INNER ITERATIONS.
    ------------------------------------------------

 NO OUTPUT CONTROL FOR STRESS PERIOD   43   TIME STEP   27
 
 SOLVING FOR HEAD 
                                                   Max.-Head-Change                         Max.-Flux-Residual
  Residual-Control   Outer-Iter.   Inner-Iter.     Column Row Layer    Maximum-Head-Change  Column Row Layer    Maximum-Flux-Residual          L2-NORM 
          0                 1           2             4    7     1      -0.4479383647E-01       4    7    1        -0.2353035225E+01      0.4976057370E+01
          0                 2           2             4    7     1       0.4357181176E-02       4    7    1         0.2353009920E+00      0.4976031931E+00
          0                 3           2             4    7     1      -0.2967082530E-03       4    7    1        -0.1647110050E-01      0.3483223872E-01
          0                 4           1             4    7     1       0.1180629731E-04       4    7    1         0.6736688329E-03      0.1424639293E-02

    ------------------------------------------------
       NWT REQUIRED            4 OUTER ITERATIONS 
       AND A TOTAL OF          7 INNER ITERATIONS.
    ------------------------------------------------

 NO OUTPUT CONTROL FOR STRESS PERIOD   43   TIME STEP   28
 
 SOLVING FOR HEAD 
                                                   Max.-Head-Change                         Max.-Flux-Residual
  Residual-Control   Outer-Iter.   Inner-Iter.     Column Row Layer    Maximum-Head-Change  Column Row Layer    Maximum-Flux-Residual          L2-NORM 
          0                 1           2             4    7     1      -0.4430456428E-01       4    7    1        -0.2327385509E+01      0.4926424465E+01
          0                 2           2             4    7     1       0.4309588885E-02       4    7    1         0.2327360574E+00      0.4926399566E+00
          0                 3           2             4    7     1      -0.2934673890E-03       4    7    1        -0.1629155464E-01      0.3448481250E-01
          0                 4           1             4    7     1       0.1167734058E-04       4    7    1         0.6663253962E-03      0.1410427289E-02

    ------------------------------------------------
       NWT REQUIRED            4 OUTER ITERATIONS 
       AND A TOTAL OF          7 INNER ITERATIONS.
    ------------------------------------------------

 NO OUTPUT CONTROL FOR STRESS PERIOD   43   TIME STEP   29
 
 SOLVING FOR HEAD 
                                                   Max.-Head-Change                         Max.-Flux-Residual
  Residual-Control   Outer-Iter.   Inner-Iter.     Column Row Layer    Maximum-Head-Change  Column Row Layer    Maximum-Flux-Residual          L2-NORM 
          0                 1           2             4    7     1      -0.4381980600E-01       4    7    1        -0.2301958460E+01      0.4878116330E+01
          0                 2           2             4    7     1       0.4262435689E-02       4    7    1         0.2301933904E+00      0.4878092040E+00
          0                 3           2             4    7     1      -0.2902564258E-03       4    7    1        -0.1611356752E-01      0.3414666144E-01
          0                 4           1             4    7     1       0.1154957335E-04       4    7    1         0.6590457231E-03      0.1396598619E-02

    ------------------------------------------------
       NWT REQUIRED            4 OUTER ITERATIONS 
       AND A TOTAL OF          7 INNER ITERATIONS.
    ------------------------------------------------

 NO OUTPUT CONTROL FOR STRESS PERIOD   43   TIME STEP   30



 STREAM LISTING     PERIOD     43   STEP       30

 LAYER ROW COL. STREAM  RCH.  FLOW INTO     FLOW TO   FLOW OUT OF   OVRLND.     DIRECT     STREAM       STREAM     STREAM     STREAM   STREAMBED  STREAMBED
                SEG.NO.  NO.  STRM. RCH.    AQUIFER    STRM. RCH.    RUNOFF     PRECIP       ET          HEAD       DEPTH      WIDTH   CONDCTNC.   GRADIENT

   1    1    1     1     1    2.1749E+01  2.2965E-01   2.1520E+01  0.000E+00  0.000E+00  0.000E+00  1.09418E+03  1.128E+00  1.236E+01  5.564E-02  1.376E+00
   1    2    2     1     2    2.1520E+01  3.5497E-01   2.1165E+01  0.000E+00  0.000E+00  0.000E+00  1.08918E+03  1.123E+00  1.230E+01  8.610E-02  1.374E+00
   1    3    3     1     3    2.1165E+01  3.0207E-01   2.0863E+01  0.000E+00  0.000E+00  0.000E+00  1.08354E+03  1.117E+00  1.223E+01  7.337E-02  1.372E+00
   1    3    4     1     4    2.0863E+01  2.7761E-01   2.0585E+01  0.000E+00  0.000E+00  0.000E+00  1.07852E+03  1.112E+00  1.216E+01  6.751E-02  1.371E+00
   1    4    5     2     1    1.8585E+01  3.1244E-01   1.8273E+01  0.000E+00  0.000E+00  0.000E+00  1.07294E+03  1.006E+00  1.200E+01  7.800E-02  1.335E+00
   1    5    6     2     2    1.8273E+01  2.3979E-01   1.8033E+01  0.000E+00  0.000E+00  0.000E+00  1.06751E+03  9.966E-01  1.200E+01  6.000E-02  1.332E+00
   1    6    6     2     3    1.8033E+01  2.3932E-01   1.7793E+01  0.000E+00  0.000E+00  0.000E+00  1.06278E+03  9.887E-01  1.200E+01  6.000E-02  1.330E+00
   1    7    6     2     4    1.7793E+01  2.3884E-01   1.7555E+01  0.000E+00  0.000E+00  0.000E+00  1.05806E+03  9.807E-01  1.200E+01  6.000E-02  1.327E+00
   1    8    6     2     5    1.7555E+01  2.3837E-01   1.7316E+01  0.000E+00  0.000E+00  0.000E+00  1.05333E+03  9.728E-01  1.200E+01  6.000E-02  1.324E+00
   1    3    5     3     1    2.0000E+00  2.8252E-01   1.7175E+00  0.000E+00  0.000E+00  0.000E+00  1.07555E+03  1.909E+00  9.636E+00  7.227E-02  1.955E+00
   1    3    6     3     2    1.7175E+00  2.4905E-01   1.4684E+00  0.000E+00  0.000E+00  0.000E+00  1.07264E+03  1.727E+00  8.909E+00  6.682E-02  1.864E+00
   1    3    7     3     3    1.4684E+00  1.9718E-01   1.2712E+00  0.000E+00  0.000E+00  0.000E+00  1.06987E+03  1.555E+00  8.218E+00  5.547E-02  1.777E+00
   1    4    8     3     4    1.2712E+00  2.2567E-01   1.0456E+00  0.000E+00  0.000E+00  0.000E+00  1.06682E+03  1.364E+00  7.455E+00  6.709E-02  1.682E+00
   1    5    8     3     5    1.0456E+00  1.5790E-01   8.8768E-01  0.000E+00  0.000E+00  0.000E+00  1.06362E+03  1.164E+00  6.655E+00  4.991E-02  1.582E+00
   1    6    8     3     6    8.8768E-01  5.5980E-02   8.3170E-01  0.000E+00  0.000E+00  0.000E+00  1.06158E+03  1.036E+00  6.145E+00  1.844E-02  1.518E+00
   1    5   10     4     1    1.0000E+01  9.0919E-02   9.9091E+00  0.000E+00  0.000E+00  0.000E+00  1.07836E+03  6.368E-01  1.000E+01  2.500E-02  1.212E+00
   1    5    9     4     2    9.9091E+00  1.8158E-01   9.7275E+00  0.000E+00  0.000E+00  0.000E+00  1.07154E+03  6.315E-01  1.000E+01  5.000E-02  1.211E+00
   1    6    8     4     3    9.7275E+00  1.2689E-01   9.6006E+00  0.000E+00  0.000E+00  0.000E+00  1.06381E+03  6.256E-01  1.000E+01  3.500E-02  1.209E+00
   1    6    8     5     1    1.0432E+01  2.2686E-01   1.0205E+01  0.000E+00  0.000E+00  0.000E+00  1.05868E+03  6.790E-01  1.542E+01  6.166E-02  1.226E+00
   1    7    7     5     2    1.0205E+01  2.7894E-01   9.9265E+00  0.000E+00  0.000E+00  0.000E+00  1.05417E+03  6.732E-01  1.519E+01  7.594E-02  1.224E+00
   1    8    7     5     3    9.9265E+00  1.9221E-01   9.7343E+00  0.000E+00  0.000E+00  0.000E+00  1.04992E+03  6.676E-01  1.497E+01  5.241E-02  1.223E+00
   1    8    6     5     4    9.7343E+00  1.3577E-01   9.5985E+00  0.000E+00  0.000E+00  0.000E+00  1.04691E+03  6.637E-01  1.482E+01  3.706E-02  1.221E+00
   1    9    6     6     1    2.6915E+01  2.5636E-01   2.6658E+01  0.000E+00  0.000E+00  0.000E+00  1.04400E+03  1.273E+00  1.200E+01  6.000E-02  1.424E+00
   1   10    7     6     2    2.6658E+01  2.5592E-01   2.6403E+01  0.000E+00  0.000E+00  0.000E+00  1.03945E+03  1.265E+00  1.200E+01  6.000E-02  1.422E+00
   1   11    7     6     3    2.6403E+01  2.5548E-01   2.6147E+01  0.000E+00  0.000E+00  0.000E+00  1.03489E+03  1.258E+00  1.200E+01  6.000E-02  1.419E+00
   1   12    7     6     4    2.6147E+01  2.5504E-01   2.5892E+01  0.000E+00  0.000E+00  0.000E+00  1.03034E+03  1.251E+00  1.200E+01  6.000E-02  1.417E+00
   1   13    7     6     5    2.5892E+01  1.9196E-02   2.5873E+01  0.000E+00  0.000E+00  0.000E+00  1.02716E+03  1.247E+00  1.200E+01  2.400E-02  2.666E-01
   1   14    9     7     1    1.5000E+02  1.4086E+00   1.4859E+02  0.000E+00  0.000E+00  0.000E+00  1.03987E+03  2.288E+00  5.529E+01  5.593E-01  8.395E-01
   1   13    8     7     2    1.4859E+02  2.0685E+00   1.4652E+02  0.000E+00  0.000E+00  0.000E+00  1.03478E+03  2.278E+00  5.525E+01  6.147E-01  1.122E+00
   1   13    7     7     3    1.4652E+02  1.8598E+00   1.4466E+02  0.000E+00  0.000E+00  0.000E+00  1.02969E+03  2.268E+00  5.521E+01  5.583E-01  1.110E+00
   1   13    6     8     1    1.7054E+02  1.2902E+00   1.6925E+02  0.000E+00  0.000E+00  0.000E+00  1.02483E+03  2.951E+00  4.280E+01  4.361E-01  9.861E-01
   1   13    5     8     2    1.6925E+02  5.0444E-01   1.6874E+02  0.000E+00  0.000E+00  0.000E+00  1.01857E+03  2.946E+00  4.271E+01  4.352E-01  3.863E-01
   1   13    4     8     3    1.6874E+02 -1.3579E+00   1.7010E+02  0.000E+00  0.000E+00  0.000E+00  1.01232E+03  2.948E+00  4.275E+01  4.357E+00 -1.039E-01
   1   13    3     8     4    1.7010E+02 -3.1194E+00   1.7322E+02  0.000E+00  0.000E+00  0.000E+00  1.00609E+03  2.963E+00  4.296E+01  4.378E+00 -2.375E-01
   1   13    2     8     5    1.7322E+02 -2.4450E+00   1.7566E+02  0.000E+00  0.000E+00  0.000E+00  9.99856E+02  2.981E+00  4.322E+01  4.405E+00 -1.850E-01
   1   13    1     8     6    1.7566E+02 -1.9539E+00   1.7762E+02  0.000E+00  0.000E+00  0.000E+00  9.94870E+02  2.995E+00  4.343E+01  2.655E+00 -2.453E-01
   1    8    6     9     1    0.0000E+00  0.0000E+00   0.0000E+00  0.000E+00  0.000E+00  0.000E+00  1.07875E+03  0.000E+00  4.000E+00  0.000E+00  1.000E+00
   1    8    5     9     2    0.0000E+00  0.0000E+00   0.0000E+00  0.000E+00  0.000E+00  0.000E+00  1.07825E+03  0.000E+00  4.000E+00  0.000E+00  1.000E+00





UNSATURATED ZONE PACKAGE VOLUMETRIC BUDGET FOR  TIME STEP    30 STRESS PERIOD   43
  ------------------------------------------------------------------------------



     CUMULATIVE VOLUMES      L**3       RATES FOR THIS TIME STEP      L**3/T
     ------------------                 ------------------------

           IN:                                      IN:
           ---                                      ---
        INFILTRATION =  1376208068.7557          INFILTRATION =          23.3175

          OUT:                                     OUT:
          ----                                     ----
              UZF ET =  1375382503.7825                UZF ET =          23.3175
        UZF RECHARGE =       73224.0000          UZF RECHARGE =       0.0000E+00

            IN - OUT =      752340.9732              IN - OUT =       0.0000E+00

          STORAGE:                                 STORAGE:
          --------                                 --------
      STORAGE CHANGE =      752341.1305        STORAGE CHANGE =      -1.6599E-15

 PERCENT DISCREPANCY IS DIFFERENCE BETWEEN IN-OUT MINUS CHANGE IN STORAGE
 DIVIDED BY THE AVERAGE OF IN AND OUT TIMES 100

 PERCENT DISCREPANCY =           0.00     PERCENT DISCREPANCY =           0.00






1
  VOLUMETRIC BUDGET FOR AGRICULTURAL FIELDS AT  END OF TIME STEP   30, STRESS PERIOD  43
  ------------------------------------------------------------------------------

     CUMULATIVE VOLUMES      L**3       RATES FOR THIS TIME STEP      L**3/T
     ------------------                 ------------------------

           IN:                                      IN:
           ---                                      ---
               AG WELLS  =  1282518144.0000                 AG WELLS  =          22.4700
      DIVERSION SEGMENTS =           0.0000        DIVERSION SEGMENTS =           0.0000
       IRRIGATION PONDS  =           0.0000         IRRIGATION PONDS  =           0.0000
           GW IRRIGATION =           0.0000             GW IRRIGATION =           0.0000
           SW IRRIGATION =           0.0000             SW IRRIGATION =           0.0000
        SYSTEM LOSSES GW =           0.0000          SYSTEM LOSSES GW =           0.0000
        SYSTEM LOSSES SW =           0.0000          SYSTEM LOSSES SW =           0.0000

                TOTAL IN =  1282518144.0000                  TOTAL IN =          22.4700

          OUT:                                     OUT:
          ----                                     ----
               AG WELLS  =           0.0000                 AG WELLS  =           0.0000
      DIVERSION SEGMENTS =           0.0000        DIVERSION SEGMENTS =           0.0000
       IRRIGATION PONDS  =           0.0000         IRRIGATION PONDS  =           0.0000
           GW IRRIGATION =  1282518144.0000             GW IRRIGATION =          22.4700
           SW IRRIGATION =           0.0000             SW IRRIGATION =           0.0000
        SYSTEM LOSSES GW =           0.0000          SYSTEM LOSSES GW =           0.0000
        SYSTEM LOSSES SW =           0.0000          SYSTEM LOSSES SW =           0.0000

               TOTAL OUT =  1282518144.0000                 TOTAL OUT =          22.4700

                IN - OUT =           0.0000                  IN - OUT =           0.0000

     PERCENT DISCREPANCY =           0.00         PERCENT DISCREPANCY =           0.00



1
  VOLUMETRIC BUDGET FOR ENTIRE MODEL AT END OF TIME STEP   30, STRESS PERIOD  43
  ------------------------------------------------------------------------------

     CUMULATIVE VOLUMES      L**3       RATES FOR THIS TIME STEP      L**3/T
     ------------------                 ------------------------

           IN:                                      IN:
           ---                                      ---
             STORAGE     =  1720170112.0000               STORAGE     =          18.5867
       CONSTANT HEAD     =           0.0000         CONSTANT HEAD     =           0.0000
     HEAD DEP BOUNDS     =    31922550.0000       HEAD DEP BOUNDS     =           0.2907
      STREAM LEAKAGE     =  1343639552.0000        STREAM LEAKAGE     =          13.0080
        UZF RECHARGE     =       73223.9531          UZF RECHARGE     =           0.0000
               GW ET     =           0.0000                 GW ET     =           0.0000
     SURFACE LEAKAGE     =           0.0000       SURFACE LEAKAGE     =           0.0000
           AG WELLS      =           0.0000             AG WELLS      =           0.0000

                TOTAL IN =  3095805440.0000                  TOTAL IN =          31.8854

          OUT:                                     OUT:
          ----                                     ----
             STORAGE     =   713529152.0000               STORAGE     =           0.2503
       CONSTANT HEAD     =           0.0000         CONSTANT HEAD     =           0.0000
     HEAD DEP BOUNDS     =    31924902.0000       HEAD DEP BOUNDS     =           0.2890
      STREAM LEAKAGE     =  1067845632.0000        STREAM LEAKAGE     =           8.8762
        UZF RECHARGE     =           0.0000          UZF RECHARGE     =           0.0000
               GW ET     =           0.0000                 GW ET     =           0.0000
     SURFACE LEAKAGE     =           0.0000       SURFACE LEAKAGE     =           0.0000
           AG WELLS      =  1282518144.0000             AG WELLS      =          22.4700

               TOTAL OUT =  3095817728.0000                 TOTAL OUT =          31.8855

                IN - OUT =      -12288.0000                  IN - OUT =      -6.2943E-05

     PERCENT DISCREPANCY =          -0.00         PERCENT DISCREPANCY =          -0.00






         TIME SUMMARY AT END OF TIME STEP   30 IN STRESS PERIOD   43
                    SECONDS     MINUTES      HOURS       DAYS        YEARS
                    -----------------------------------------------------------
   TIME STEP LENGTH  87667.      1461.1      24.352      1.0147     2.77799E-03
 STRESS PERIOD TIME 2.63000E+06  43833.      730.56      30.440     8.33397E-02
         TOTAL TIME 1.10545E+08 1.84242E+06  30707.      1279.5      3.5030    
1
1
                            STRESS PERIOD NO.   44, LENGTH =   2630000.    
                            -----------------------------------------------

                              NUMBER OF TIME STEPS =    30

                               MULTIPLIER FOR DELT =     1.000

                            INITIAL TIME STEP SIZE =   87666.66    

 REUSING NON-PARAMETER GHB CELLS FROM LAST STRESS PERIOD

      2 GHB CELLS

 REUSING STREAM SEGMENT DATA FROM LAST STRESS PERIOD



            AREAL INFILTRATION RATE
 READING ON UNIT   19 WITH FORMAT: (FREE)              

            1           2           3           4           5           6           7           8           9          10
 ........................................................................................................................
   1   1.0000E-10  2.0000E-10   0.000       0.000       0.000       0.000       0.000       0.000       0.000       0.000    
   2   2.0000E-10  1.0000E-10  2.0000E-10   0.000       0.000      8.0000E-10  8.0000E-10  5.0000E-10   0.000       0.000    
   3    0.000      5.0000E-10  1.0000E-10  1.0000E-10  8.0000E-10  8.0000E-10  5.0000E-10  5.0000E-10   0.000       0.000    
   4   8.0000E-10  5.0000E-10  1.0000E-10  1.0000E-10  1.0000E-10  1.0000E-10  1.0000E-10  1.0000E-10  2.0000E-10   0.000    
   5   8.0000E-10  5.0000E-10  1.0000E-10  1.0000E-10  1.0000E-10  1.0000E-10  1.0000E-10  1.0000E-10  1.0000E-10  1.0000E-10
   6   8.0000E-10  5.0000E-10  5.0000E-10  2.0000E-10  2.0000E-10  1.0000E-10  1.0000E-10  1.0000E-10  1.0000E-10  5.0000E-10
   7   8.0000E-10  5.0000E-10  5.0000E-10  2.0000E-10  2.0000E-10  1.0000E-10  1.0000E-10  2.0000E-10  2.0000E-10   0.000    
   8    0.000      5.0000E-10  5.0000E-10  2.0000E-10  2.0000E-10  1.0000E-10  1.0000E-10  2.0000E-10  5.0000E-10   0.000    
   9    0.000      5.0000E-10  5.0000E-10  2.0000E-10  2.0000E-10  1.0000E-10  1.0000E-10  2.0000E-10  5.0000E-10   0.000    
  10    0.000      5.0000E-10  5.0000E-10  2.0000E-10  2.0000E-10  1.0000E-10  1.0000E-10  2.0000E-10  5.0000E-10  8.0000E-10
  11    0.000      1.0000E-10  1.0000E-10  1.0000E-10  1.0000E-10  1.0000E-10  1.0000E-10  2.0000E-10  5.0000E-10   0.000    
  12   1.0000E-10  1.0000E-10  1.0000E-10  1.0000E-10  1.0000E-10  1.0000E-10  1.0000E-10  1.0000E-10  2.0000E-10   0.000    
  13   1.0000E-10  1.0000E-10  2.0000E-10  2.0000E-10  2.0000E-10  2.0000E-10  2.0000E-10  1.0000E-10  1.0000E-10   0.000    
  14    0.000      2.0000E-10  5.0000E-10  5.0000E-10  5.0000E-10  5.0000E-10  5.0000E-10  2.0000E-10  1.0000E-10   0.000    
  15    0.000       0.000      8.0000E-10  8.0000E-10  8.0000E-10  8.0000E-10   0.000       0.000       0.000       0.000    

                  ET RATE =  4.000000E-07

 USING ET EXTINCTION DEPTH FROM PREVIOUS STRESS PERIOD. CURRENT PERIOD IS:      44

 USING EXTINCTION WATER CONTENT FROM PREVIOUS STRESS PERIOD. CURRENT PERIOD IS:      44

 USING AIR ENTRY PRESSURE FROM PREVIOUS STRESS PERIOD. CURRENT PERIOD IS:      44

 USING ROOT PRESSURE HEAD FROM PREVIOUS STRESS PERIOD. CURRENT PERIOD IS:      44

 USING ROOT ACTIVITY FROM PREVIOUS STRESS PERIOD. CURRENT PERIOD IS:      44

 PROCESSING AG STRESS PERIOD DATA

 READING AG STRESS PERIOD DATA

 READING IRRIGATION SEGMENT

 READING IRRIGATION WELL

 READING SUPPLEMENTAL WELL

 NO IRRPOND OR REUSING IRRPOND DATA FROM LAST STRESS PERIOD

 END PROCESSING AG STRESS PERIOD DATA OPTIONS
 
 SOLVING FOR HEAD 
                                                   Max.-Head-Change                         Max.-Flux-Residual
  Residual-Control   Outer-Iter.   Inner-Iter.     Column Row Layer    Maximum-Head-Change  Column Row Layer    Maximum-Flux-Residual          L2-NORM 
          0                 1           2             4    7     1      -0.1630609694E+00       4    7    1        -0.8526765230E+01      0.1991354567E+02
          0                 2           2             4    7     1       0.1586113327E-01       4    7    1         0.8526597278E+00      0.1991327894E+01
          0                 3           2             4    7     1      -0.1080086845E-02       4    7    1        -0.5968636564E-01      0.1393932613E+00
          0                 4           1             4    7     1       0.4297765451E-04       4    7    1         0.2441175018E-02      0.5701191585E-02

    ------------------------------------------------
       NWT REQUIRED            4 OUTER ITERATIONS 
       AND A TOTAL OF          7 INNER ITERATIONS.
    ------------------------------------------------

 NO OUTPUT CONTROL FOR STRESS PERIOD   44   TIME STEP    1
 
 SOLVING FOR HEAD 
                                                   Max.-Head-Change                         Max.-Flux-Residual
  Residual-Control   Outer-Iter.   Inner-Iter.     Column Row Layer    Maximum-Head-Change  Column Row Layer    Maximum-Flux-Residual          L2-NORM 
          0                 1           2             4    7     1      -0.1619649167E+00       4    7    1        -0.8472252691E+01      0.1960024907E+02
          0                 2           2             4    7     1       0.1575450131E-01       4    7    1         0.8472073960E+00      0.1959997850E+01
          0                 3           2             4    7     1      -0.1072825759E-02       4    7    1        -0.5930471244E-01      0.1372001610E+00
          0                 4           1             4    7     1       0.4268872879E-04       4    7    1         0.2425565338E-02      0.5611492818E-02

    ------------------------------------------------
       NWT REQUIRED            4 OUTER ITERATIONS 
       AND A TOTAL OF          7 INNER ITERATIONS.
    ------------------------------------------------

 NO OUTPUT CONTROL FOR STRESS PERIOD   44   TIME STEP    2
 
 SOLVING FOR HEAD 
                                                   Max.-Head-Change                         Max.-Flux-Residual
  Residual-Control   Outer-Iter.   Inner-Iter.     Column Row Layer    Maximum-Head-Change  Column Row Layer    Maximum-Flux-Residual          L2-NORM 
          0                 1           2             4    7     1      -0.1608263870E+00       4    7    1        -0.8415294339E+01      0.1930137194E+02
          0                 2           2             4    7     1       0.1564373943E-01       4    7    1         0.8415106116E+00      0.1930109882E+01
          0                 3           2             4    7     1      -0.1065283423E-02       4    7    1        -0.5890594634E-01      0.1351080040E+00
          0                 4           1             4    7     1       0.4238861117E-04       4    7    1         0.2409255734E-02      0.5525923494E-02

    ------------------------------------------------
       NWT REQUIRED            4 OUTER ITERATIONS 
       AND A TOTAL OF          7 INNER ITERATIONS.
    ------------------------------------------------

 NO OUTPUT CONTROL FOR STRESS PERIOD   44   TIME STEP    3
 
 SOLVING FOR HEAD 
                                                   Max.-Head-Change                         Max.-Flux-Residual
  Residual-Control   Outer-Iter.   Inner-Iter.     Column Row Layer    Maximum-Head-Change  Column Row Layer    Maximum-Flux-Residual          L2-NORM 
          0                 1           2             4    7     1      -0.1596499331E+00       4    7    1        -0.8356140869E+01      0.1901585949E+02
          0                 2           2             4    7     1       0.1552929034E-01       4    7    1         0.8355944348E+00      0.1901558491E+01
          0                 3           2             4    7     1      -0.1057489983E-02       4    7    1        -0.5849182165E-01      0.1331094075E+00
          0                 4           1             4    7     1       0.4207850254E-04       4    7    1         0.2392317983E-02      0.5444181083E-02

    ------------------------------------------------
       NWT REQUIRED            4 OUTER ITERATIONS 
       AND A TOTAL OF          7 INNER ITERATIONS.
    ------------------------------------------------

 NO OUTPUT CONTROL FOR STRESS PERIOD   44   TIME STEP    4
 
 SOLVING FOR HEAD 
                                                   Max.-Head-Change                         Max.-Flux-Residual
  Residual-Control   Outer-Iter.   Inner-Iter.     Column Row Layer    Maximum-Head-Change  Column Row Layer    Maximum-Flux-Residual          L2-NORM 
          0                 1           2             4    7     1      -0.1584394517E+00       4    7    1        -0.8295006573E+01      0.1874277175E+02
          0                 2           2             4    7     1       0.1541153295E-01       4    7    1         0.8294802859E+00      0.1874249668E+01
          0                 3           2             4    7     1      -0.1049471244E-02       4    7    1        -0.5806383782E-01      0.1311977901E+00
          0                 4           1             4    7     1       0.4175942893E-04       4    7    1         0.2374813383E-02      0.5365995709E-02

    ------------------------------------------------
       NWT REQUIRED            4 OUTER ITERATIONS 
       AND A TOTAL OF          7 INNER ITERATIONS.
    ------------------------------------------------

 NO OUTPUT CONTROL FOR STRESS PERIOD   44   TIME STEP    5
 
 SOLVING FOR HEAD 
                                                   Max.-Head-Change                         Max.-Flux-Residual
  Residual-Control   Outer-Iter.   Inner-Iter.     Column Row Layer    Maximum-Head-Change  Column Row Layer    Maximum-Flux-Residual          L2-NORM 
          0                 1           2             4    7     1      -0.1571988760E+00       4    7    1        -0.8232108021E+01      0.1848182482E+02
          0                 2           2             4    7     1       0.1529084973E-01       4    7    1         0.8231898138E+00      0.1848154459E+01
          0                 3           2             4    7     1      -0.1041253253E-02       4    7    1        -0.5762351046E-01      0.1293710780E+00
          0                 4           1             4    7     1       0.4143242683E-04       4    7    1         0.2356803936E-02      0.5291284752E-02

    ------------------------------------------------
       NWT REQUIRED            4 OUTER ITERATIONS 
       AND A TOTAL OF          7 INNER ITERATIONS.
    ------------------------------------------------

 NO OUTPUT CONTROL FOR STRESS PERIOD   44   TIME STEP    6
 
 SOLVING FOR HEAD 
                                                   Max.-Head-Change                         Max.-Flux-Residual
  Residual-Control   Outer-Iter.   Inner-Iter.     Column Row Layer    Maximum-Head-Change  Column Row Layer    Maximum-Flux-Residual          L2-NORM 
          0                 1           2             4    7     1      -0.1559317521E+00       4    7    1        -0.8167641908E+01      0.1823128570E+02
          0                 2           2             4    7     1       0.1516758549E-01       4    7    1         0.8167426799E+00      0.1823100508E+01
          0                 3           2             4    7     1      -0.1032859490E-02       4    7    1        -0.5717221582E-01      0.1276172890E+00
          0                 4           1             4    7     1       0.4109843107E-04       4    7    1         0.2338345951E-02      0.5219546496E-02

    ------------------------------------------------
       NWT REQUIRED            4 OUTER ITERATIONS 
       AND A TOTAL OF          7 INNER ITERATIONS.
    ------------------------------------------------

 NO OUTPUT CONTROL FOR STRESS PERIOD   44   TIME STEP    7
 
 SOLVING FOR HEAD 
                                                   Max.-Head-Change                         Max.-Flux-Residual
  Residual-Control   Outer-Iter.   Inner-Iter.     Column Row Layer    Maximum-Head-Change  Column Row Layer    Maximum-Flux-Residual          L2-NORM 
          0                 1           2             4    7     1      -0.1546415387E+00       4    7    1        -0.8101799350E+01      0.1799065768E+02
          0                 2           2             4    7     1       0.1504207656E-01       4    7    1         0.8101579883E+00      0.1799037949E+01
          0                 3           2             4    7     1      -0.1024312859E-02       4    7    1        -0.5671129132E-01      0.1259329143E+00
          0                 4           1             4    7     1       0.4075835243E-04       4    7    1         0.2319494086E-02      0.5150661243E-02

    ------------------------------------------------
       NWT REQUIRED            4 OUTER ITERATIONS 
       AND A TOTAL OF          7 INNER ITERATIONS.
    ------------------------------------------------

 NO OUTPUT CONTROL FOR STRESS PERIOD   44   TIME STEP    8
 
 SOLVING FOR HEAD 
                                                   Max.-Head-Change                         Max.-Flux-Residual
  Residual-Control   Outer-Iter.   Inner-Iter.     Column Row Layer    Maximum-Head-Change  Column Row Layer    Maximum-Flux-Residual          L2-NORM 
          0                 1           2             4    7     1      -0.1533315988E+00       4    7    1        -0.8034766934E+01      0.1775943341E+02
          0                 2           2             4    7     1       0.1491464998E-01       4    7    1         0.8034543904E+00      0.1775926467E+01
          0                 3           2             4    7     1      -0.1015635632E-02       4    7    1        -0.5624204263E-01      0.1243151136E+00
          0                 4           1             4    7     1       0.4041307692E-04       4    7    1         0.2300301761E-02      0.5084492815E-02

    ------------------------------------------------
       NWT REQUIRED            4 OUTER ITERATIONS 
       AND A TOTAL OF          7 INNER ITERATIONS.
    ------------------------------------------------

 NO OUTPUT CONTROL FOR STRESS PERIOD   44   TIME STEP    9
 
 SOLVING FOR HEAD 
                                                   Max.-Head-Change                         Max.-Flux-Residual
  Residual-Control   Outer-Iter.   Inner-Iter.     Column Row Layer    Maximum-Head-Change  Column Row Layer    Maximum-Flux-Residual          L2-NORM 
          0                 1           2             4    7     1      -0.1520046800E+00       4    7    1        -0.7966697296E+01      0.1753700051E+02
          0                 2           2             4    7     1       0.1478557290E-01       4    7    1         0.7966471434E+00      0.1753689469E+01
          0                 3           2             4    7     1      -0.1006846001E-02       4    7    1        -0.5576553782E-01      0.1227585255E+00
          0                 4           1             4    7     1       0.4006332929E-04       4    7    1         0.2280812680E-02      0.5020828103E-02

    ------------------------------------------------
       NWT REQUIRED            4 OUTER ITERATIONS 
       AND A TOTAL OF          7 INNER ITERATIONS.
    ------------------------------------------------

 NO OUTPUT CONTROL FOR STRESS PERIOD   44   TIME STEP   10
 
 SOLVING FOR HEAD 
                                                   Max.-Head-Change                         Max.-Flux-Residual
  Residual-Control   Outer-Iter.   Inner-Iter.     Column Row Layer    Maximum-Head-Change  Column Row Layer    Maximum-Flux-Residual          L2-NORM 
          0                 1           2             4    7     1      -0.1506636056E+00       4    7    1        -0.7897747402E+01      0.1732280334E+02
          0                 2           2             4    7     1       0.1465511979E-01       4    7    1         0.7897519378E+00      0.1732253554E+01
          0                 3           2             4    7     1      -0.9979626583E-03       4    7    1        -0.5528287526E-01      0.1212580138E+00
          0                 4           1             4    7     1       0.3970985256E-04       4    7    1         0.2261071740E-02      0.4959471741E-02

    ------------------------------------------------
       NWT REQUIRED            4 OUTER ITERATIONS 
       AND A TOTAL OF          7 INNER ITERATIONS.
    ------------------------------------------------

 NO OUTPUT CONTROL FOR STRESS PERIOD   44   TIME STEP   11
 
 SOLVING FOR HEAD 
                                                   Max.-Head-Change                         Max.-Flux-Residual
  Residual-Control   Outer-Iter.   Inner-Iter.     Column Row Layer    Maximum-Head-Change  Column Row Layer    Maximum-Flux-Residual          L2-NORM 
          0                 1           2             4    7     1      -0.1493110056E+00       4    7    1        -0.7828063642E+01      0.1711633049E+02
          0                 2           2             4    7     1       0.1452354651E-01       4    7    1         0.7827834066E+00      0.1711606648E+01
          0                 3           2             4    7     1      -0.9890030270E-03       4    7    1        -0.5479507933E-01      0.1198127280E+00
          0                 4           1             4    7     1       0.3935334049E-04       4    7    1         0.2241120871E-02      0.4900341443E-02

    ------------------------------------------------
       NWT REQUIRED            4 OUTER ITERATIONS 
       AND A TOTAL OF          7 INNER ITERATIONS.
    ------------------------------------------------

 NO OUTPUT CONTROL FOR STRESS PERIOD   44   TIME STEP   12
 
 SOLVING FOR HEAD 
                                                   Max.-Head-Change                         Max.-Flux-Residual
  Residual-Control   Outer-Iter.   Inner-Iter.     Column Row Layer    Maximum-Head-Change  Column Row Layer    Maximum-Flux-Residual          L2-NORM 
          0                 1           2             4    7     1      -0.1479493221E+00       4    7    1        -0.7757782382E+01      0.1691714871E+02
          0                 2           2             4    7     1       0.1439109046E-01       4    7    1         0.7757551811E+00      0.1691688874E+01
          0                 3           2             4    7     1      -0.9799832742E-03       4    7    1        -0.5430310428E-01      0.1184184816E+00
          0                 4           1             4    7     1       0.3899443572E-04       4    7    1         0.2220999035E-02      0.4843319179E-02

    ------------------------------------------------
       NWT REQUIRED            4 OUTER ITERATIONS 
       AND A TOTAL OF          7 INNER ITERATIONS.
    ------------------------------------------------

 NO OUTPUT CONTROL FOR STRESS PERIOD   44   TIME STEP   13
 
 SOLVING FOR HEAD 
                                                   Max.-Head-Change                         Max.-Flux-Residual
  Residual-Control   Outer-Iter.   Inner-Iter.     Column Row Layer    Maximum-Head-Change  Column Row Layer    Maximum-Flux-Residual          L2-NORM 
          0                 1           2             4    7     1      -0.1465806923E+00       4    7    1        -0.7687023009E+01      0.1672483010E+02
          0                 2           2             4    7     1       0.1425795948E-01       4    7    1         0.7686791949E+00      0.1672457423E+01
          0                 3           2             4    7     1      -0.9709175546E-03       4    7    1        -0.5380778550E-01      0.1170722790E+00
          0                 4           1             4    7     1       0.3863370249E-04       4    7    1         0.2200740479E-02      0.4788257886E-02

    ------------------------------------------------
       NWT REQUIRED            4 OUTER ITERATIONS 
       AND A TOTAL OF          7 INNER ITERATIONS.
    ------------------------------------------------

 NO OUTPUT CONTROL FOR STRESS PERIOD   44   TIME STEP   14
 
 SOLVING FOR HEAD 
                                                   Max.-Head-Change                         Max.-Flux-Residual
  Residual-Control   Outer-Iter.   Inner-Iter.     Column Row Layer    Maximum-Head-Change  Column Row Layer    Maximum-Flux-Residual          L2-NORM 
          0                 1           2             4    7     1      -0.1452073597E+00       4    7    1        -0.7615910818E+01      0.1653900007E+02
          0                 2           2             4    7     1       0.1412437150E-01       4    7    1         0.7615679728E+00      0.1653862890E+01
          0                 3           2             4    7     1      -0.9618207079E-03       4    7    1        -0.5330999977E-01      0.1157706625E+00
          0                 4           1             4    7     1       0.3827173038E-04       4    7    1         0.2180381008E-02      0.4735023662E-02

    ------------------------------------------------
       NWT REQUIRED            4 OUTER ITERATIONS 
       AND A TOTAL OF          7 INNER ITERATIONS.
    ------------------------------------------------

 NO OUTPUT CONTROL FOR STRESS PERIOD   44   TIME STEP   15
 
 SOLVING FOR HEAD 
                                                   Max.-Head-Change                         Max.-Flux-Residual
  Residual-Control   Outer-Iter.   Inner-Iter.     Column Row Layer    Maximum-Head-Change  Column Row Layer    Maximum-Flux-Residual          L2-NORM 
          0                 1           2             4    7     1      -0.1438312709E+00       4    7    1        -0.7544554896E+01      0.1635929058E+02
          0                 2           2             4    7     1       0.1399051645E-01       4    7    1         0.7544324190E+00      0.1635903695E+01
          0                 3           2             4    7     1      -0.9527056690E-03       4    7    1        -0.5281051043E-01      0.1145274050E+00
          0                 4           1             4    7     1       0.3790903435E-04       4    7    1         0.2159951863E-02      0.4685266241E-02

    ------------------------------------------------
       NWT REQUIRED            4 OUTER ITERATIONS 
       AND A TOTAL OF          7 INNER ITERATIONS.
    ------------------------------------------------

 NO OUTPUT CONTROL FOR STRESS PERIOD   44   TIME STEP   16
 
 SOLVING FOR HEAD 
                                                   Max.-Head-Change                         Max.-Flux-Residual
  Residual-Control   Outer-Iter.   Inner-Iter.     Column Row Layer    Maximum-Head-Change  Column Row Layer    Maximum-Flux-Residual          L2-NORM 
          0                 1           2             4    7     1      -0.1424542266E+00       4    7    1        -0.7473056152E+01      0.1618544454E+02
          0                 2           2             4    7     1       0.1385656881E-01       4    7    1         0.7472826206E+00      0.1618520216E+01
          0                 3           2             4    7     1      -0.9435843191E-03       4    7    1        -0.5231002359E-01      0.1132966758E+00
          0                 4           1             4    7     1       0.3754608768E-04       4    7    1         0.2139481937E-02      0.4633838029E-02

    ------------------------------------------------
       NWT REQUIRED            4 OUTER ITERATIONS 
       AND A TOTAL OF          7 INNER ITERATIONS.
    ------------------------------------------------

 NO OUTPUT CONTROL FOR STRESS PERIOD   44   TIME STEP   17
 
 SOLVING FOR HEAD 
                                                   Max.-Head-Change                         Max.-Flux-Residual
  Residual-Control   Outer-Iter.   Inner-Iter.     Column Row Layer    Maximum-Head-Change  Column Row Layer    Maximum-Flux-Residual          L2-NORM 
          0                 1           2             4    7     1      -0.1410776200E+00       4    7    1        -0.7401493542E+01      0.1601708327E+02
          0                 2           2             4    7     1       0.1372266423E-01       4    7    1         0.7401264694E+00      0.1601687057E+01
          0                 3           2             4    7     1      -0.9344658972E-03       4    7    1        -0.5180909177E-01      0.1121183345E+00
          0                 4           1             4    7     1       0.3718325741E-04       4    7    1         0.2118993811E-02      0.4909487899E-02

    ------------------------------------------------
       NWT REQUIRED            4 OUTER ITERATIONS 
       AND A TOTAL OF          7 INNER ITERATIONS.
    ------------------------------------------------

 NO OUTPUT CONTROL FOR STRESS PERIOD   44   TIME STEP   18
 
 SOLVING FOR HEAD 
                                                   Max.-Head-Change                         Max.-Flux-Residual
  Residual-Control   Outer-Iter.   Inner-Iter.     Column Row Layer    Maximum-Head-Change  Column Row Layer    Maximum-Flux-Residual          L2-NORM 
          0                 1           2             4    7     1      -0.1397033898E+00       4    7    1        -0.7329975403E+01      0.1585394057E+02
          0                 2           2             4    7     1       0.1358889681E-01       4    7    1         0.7329747954E+00      0.1585343203E+01
          0                 3           2             4    7     1      -0.9253568108E-03       4    7    1        -0.5130847314E-01      0.1109893449E+00
          0                 4           1             4    7     1       0.3682079807E-04       4    7    1         0.2098518476E-02      0.4892092397E-02

    ------------------------------------------------
       NWT REQUIRED            4 OUTER ITERATIONS 
       AND A TOTAL OF          7 INNER ITERATIONS.
    ------------------------------------------------

 NO OUTPUT CONTROL FOR STRESS PERIOD   44   TIME STEP   19
 
 SOLVING FOR HEAD 
                                                   Max.-Head-Change                         Max.-Flux-Residual
  Residual-Control   Outer-Iter.   Inner-Iter.     Column Row Layer    Maximum-Head-Change  Column Row Layer    Maximum-Flux-Residual          L2-NORM 
          0                 1           2             4    7     1      -0.1383329125E+00       4    7    1        -0.7258563965E+01      0.1569576441E+02
          0                 2           2             4    7     1       0.1345568394E-01       4    7    1         0.7258338220E+00      0.1569553589E+01
          0                 3           2             4    7     1      -0.9162854813E-03       4    7    1        -0.5080860307E-01      0.1098689966E+00
          0                 4           1             4    7     1       0.3645984162E-04       4    7    1         0.2078073768E-02      0.4826287101E-02

    ------------------------------------------------
       NWT REQUIRED            4 OUTER ITERATIONS 
       AND A TOTAL OF          7 INNER ITERATIONS.
    ------------------------------------------------

 NO OUTPUT CONTROL FOR STRESS PERIOD   44   TIME STEP   20
 
 SOLVING FOR HEAD 
                                                   Max.-Head-Change                         Max.-Flux-Residual
  Residual-Control   Outer-Iter.   Inner-Iter.     Column Row Layer    Maximum-Head-Change  Column Row Layer    Maximum-Flux-Residual          L2-NORM 
          0                 1           2             4    7     1      -0.1369675641E+00       4    7    1        -0.7187358801E+01      0.1554231467E+02
          0                 2           2             4    7     1       0.1332287811E-01       4    7    1         0.7187134984E+00      0.1554289766E+01
          0                 3           2             4    7     1      -0.9072418677E-03       4    7    1        -0.5031017837E-01      0.1088005279E+00
          0                 4           1             4    7     1       0.3609998808E-04       4    7    1         0.2057688190E-02      0.4449945507E-02

    ------------------------------------------------
       NWT REQUIRED            4 OUTER ITERATIONS 
       AND A TOTAL OF          7 INNER ITERATIONS.
    ------------------------------------------------

 NO OUTPUT CONTROL FOR STRESS PERIOD   44   TIME STEP   21
 
 SOLVING FOR HEAD 
                                                   Max.-Head-Change                         Max.-Flux-Residual
  Residual-Control   Outer-Iter.   Inner-Iter.     Column Row Layer    Maximum-Head-Change  Column Row Layer    Maximum-Flux-Residual          L2-NORM 
          0                 1           2             4    7     1      -0.1356083124E+00       4    7    1        -0.7116410161E+01      0.1539327648E+02
          0                 2           2             4    7     1       0.1319066080E-01       4    7    1         0.7116188480E+00      0.1539305832E+01
          0                 3           2             4    7     1      -0.8982383277E-03       4    7    1        -0.4981355062E-01      0.1077516482E+00
          0                 4           1             4    7     1       0.3574172883E-04       4    7    1         0.2037376077E-02      0.4407046261E-02

    ------------------------------------------------
       NWT REQUIRED            4 OUTER ITERATIONS 
       AND A TOTAL OF          7 INNER ITERATIONS.
    ------------------------------------------------

 NO OUTPUT CONTROL FOR STRESS PERIOD   44   TIME STEP   22
 
 SOLVING FOR HEAD 
                                                   Max.-Head-Change                         Max.-Flux-Residual
  Residual-Control   Outer-Iter.   Inner-Iter.     Column Row Layer    Maximum-Head-Change  Column Row Layer    Maximum-Flux-Residual          L2-NORM 
          0                 1           2             4    7     1      -0.1342563548E+00       4    7    1        -0.7045785223E+01      0.1524847990E+02
          0                 2           2             4    7     1       0.1305915569E-01       4    7    1         0.7045565863E+00      0.1524826625E+01
          0                 3           2             4    7     1      -0.8892832827E-03       4    7    1        -0.4931918989E-01      0.1067381019E+00
          0                 4           1             4    7     1       0.3538539947E-04       4    7    1         0.2017156714E-02      0.4365593413E-02

    ------------------------------------------------
       NWT REQUIRED            4 OUTER ITERATIONS 
       AND A TOTAL OF          7 INNER ITERATIONS.
    ------------------------------------------------

 NO OUTPUT CONTROL FOR STRESS PERIOD   44   TIME STEP   23
 
 SOLVING FOR HEAD 
                                                   Max.-Head-Change                         Max.-Flux-Residual
  Residual-Control   Outer-Iter.   Inner-Iter.     Column Row Layer    Maximum-Head-Change  Column Row Layer    Maximum-Flux-Residual          L2-NORM 
          0                 1           2             4    7     1      -0.1329125056E+00       4    7    1        -0.6975531248E+01      0.1510774459E+02
          0                 2           2             4    7     1       0.1291800172E-01       4    7    1         0.6967631030E+00      0.1510702339E+01
          0                 3           2             4    7     1      -0.8796710653E-03       4    7    1        -0.4877363530E-01      0.1057493978E+00
          0                 4           1             4    7     1       0.3500292083E-04       4    7    1         0.1994843542E-02      0.4325155292E-02

    ------------------------------------------------
       NWT REQUIRED            4 OUTER ITERATIONS 
       AND A TOTAL OF          7 INNER ITERATIONS.
    ------------------------------------------------

 NO OUTPUT CONTROL FOR STRESS PERIOD   44   TIME STEP   24
 
 SOLVING FOR HEAD 
                                                   Max.-Head-Change                         Max.-Flux-Residual
  Residual-Control   Outer-Iter.   Inner-Iter.     Column Row Layer    Maximum-Head-Change  Column Row Layer    Maximum-Flux-Residual          L2-NORM 
          0                 1           2             4    7     1      -0.1316201802E+00       4    7    1        -0.6906268578E+01      0.1497093138E+02
          0                 2           2             4    7     1       0.1280274555E-01       4    7    1         0.6906061529E+00      0.1497072705E+01
          0                 3           2             4    7     1      -0.8718225295E-03       4    7    1        -0.4834264749E-01      0.1047953200E+00
          0                 4           1             4    7     1       0.3469062063E-04       4    7    1         0.1977216130E-02      0.4286133632E-02

    ------------------------------------------------
       NWT REQUIRED            4 OUTER ITERATIONS 
       AND A TOTAL OF          7 INNER ITERATIONS.
    ------------------------------------------------

 NO OUTPUT CONTROL FOR STRESS PERIOD   44   TIME STEP   25
 
 SOLVING FOR HEAD 
                                                   Max.-Head-Change                         Max.-Flux-Residual
  Residual-Control   Outer-Iter.   Inner-Iter.     Column Row Layer    Maximum-Head-Change  Column Row Layer    Maximum-Flux-Residual          L2-NORM 
          0                 1           2             4    7     1      -0.1303252324E+00       4    7    1        -0.6838564235E+01      0.1483791909E+02
          0                 2           2             4    7     1       0.1267678614E-01       4    7    1         0.6838359638E+00      0.1483771898E+01
          0                 3           2             4    7     1      -0.8632451241E-03       4    7    1        -0.4786873171E-01      0.1038642581E+00
          0                 4           1             4    7     1       0.3434931784E-04       4    7    1         0.1957832959E-02      0.4248054228E-02

    ------------------------------------------------
       NWT REQUIRED            4 OUTER ITERATIONS 
       AND A TOTAL OF          7 INNER ITERATIONS.
    ------------------------------------------------

 NO OUTPUT CONTROL FOR STRESS PERIOD   44   TIME STEP   26
 
 SOLVING FOR HEAD 
                                                   Max.-Head-Change                         Max.-Flux-Residual
  Residual-Control   Outer-Iter.   Inner-Iter.     Column Row Layer    Maximum-Head-Change  Column Row Layer    Maximum-Flux-Residual          L2-NORM 
          0                 1           2             4    7     1      -0.1290390623E+00       4    7    1        -0.6771273756E+01      0.1470845590E+02
          0                 2           2             4    7     1       0.1255168071E-01       4    7    1         0.6771071724E+00      0.1470826001E+01
          0                 3           2             4    7     1      -0.8547258710E-03       4    7    1        -0.4739771370E-01      0.1029580403E+00
          0                 4           1             4    7     1       0.3401032900E-04       4    7    1         0.1938568315E-02      0.4210987657E-02

    ------------------------------------------------
       NWT REQUIRED            4 OUTER ITERATIONS 
       AND A TOTAL OF          7 INNER ITERATIONS.
    ------------------------------------------------

 NO OUTPUT CONTROL FOR STRESS PERIOD   44   TIME STEP   27
 
 SOLVING FOR HEAD 
                                                   Max.-Head-Change                         Max.-Flux-Residual
  Residual-Control   Outer-Iter.   Inner-Iter.     Column Row Layer    Maximum-Head-Change  Column Row Layer    Maximum-Flux-Residual          L2-NORM 
          0                 1           2             4    7     1      -0.1277625232E+00       4    7    1        -0.6704445703E+01      0.1458239696E+02
          0                 2           2             4    7     1       0.1242751226E-01       4    7    1         0.6704246333E+00      0.1458220521E+01
          0                 3           2             4    7     1      -0.8462704208E-03       4    7    1        -0.4692993325E-01      0.1020756534E+00
          0                 4           1             4    7     1       0.3367387895E-04       4    7    1         0.1919436065E-02      0.4174899547E-02

    ------------------------------------------------
       NWT REQUIRED            4 OUTER ITERATIONS 
       AND A TOTAL OF          7 INNER ITERATIONS.
    ------------------------------------------------

 NO OUTPUT CONTROL FOR STRESS PERIOD   44   TIME STEP   28
 
 SOLVING FOR HEAD 
                                                   Max.-Head-Change                         Max.-Flux-Residual
  Residual-Control   Outer-Iter.   Inner-Iter.     Column Row Layer    Maximum-Head-Change  Column Row Layer    Maximum-Flux-Residual          L2-NORM 
          0                 1           2             4    7     1      -0.1264963169E+00       4    7    1        -0.6638117123E+01      0.1447006741E+02
          0                 2           2             4    7     1       0.1230434904E-01       4    7    1         0.6637920504E+00      0.1446974915E+01
          0                 3           2             4    7     1      -0.8378834215E-03       4    7    1        -0.4646564963E-01      0.1012872549E+00
          0                 4           1             4    7     1       0.3334015247E-04       4    7    1         0.1900446853E-02      0.4142575427E-02

    ------------------------------------------------
       NWT REQUIRED            4 OUTER ITERATIONS 
       AND A TOTAL OF          7 INNER ITERATIONS.
    ------------------------------------------------

 NO OUTPUT CONTROL FOR STRESS PERIOD   44   TIME STEP   29
 
 SOLVING FOR HEAD 
                                                   Max.-Head-Change                         Max.-Flux-Residual
  Residual-Control   Outer-Iter.   Inner-Iter.     Column Row Layer    Maximum-Head-Change  Column Row Layer    Maximum-Flux-Residual          L2-NORM 
          0                 1           2             4    7     1      -0.1252410173E+00       4    7    1        -0.6572324401E+01      0.1435036220E+02
          0                 2           2             4    7     1       0.1218224685E-01       4    7    1         0.6572130600E+00      0.1435006552E+01
          0                 3           2             4    7     1      -0.8295686734E-03       4    7    1        -0.4600511743E-01      0.1004496523E+00
          0                 4           1             4    7     1       0.3300930107E-04       4    7    1         0.1881611078E-02      0.4108328424E-02

    ------------------------------------------------
       NWT REQUIRED            4 OUTER ITERATIONS 
       AND A TOTAL OF          7 INNER ITERATIONS.
    ------------------------------------------------

 NO OUTPUT CONTROL FOR STRESS PERIOD   44   TIME STEP   30



 STREAM LISTING     PERIOD     44   STEP       30

 LAYER ROW COL. STREAM  RCH.  FLOW INTO     FLOW TO   FLOW OUT OF   OVRLND.     DIRECT     STREAM       STREAM     STREAM     STREAM   STREAMBED  STREAMBED
                SEG.NO.  NO.  STRM. RCH.    AQUIFER    STRM. RCH.    RUNOFF     PRECIP       ET          HEAD       DEPTH      WIDTH   CONDCTNC.   GRADIENT

   1    1    1     1     1    1.3875E+01  1.7894E-01   1.3696E+01  0.000E+00  0.000E+00  0.000E+00  1.09404E+03  9.876E-01  9.972E+00  4.487E-02  1.329E+00
   1    2    2     1     2    1.3696E+01  2.7573E-01   1.3420E+01  0.000E+00  0.000E+00  0.000E+00  1.08904E+03  9.829E-01  9.890E+00  6.923E-02  1.328E+00
   1    3    3     1     3    1.3420E+01  2.3380E-01   1.3186E+01  0.000E+00  0.000E+00  0.000E+00  1.08340E+03  9.775E-01  9.797E+00  5.878E-02  1.326E+00
   1    3    4     1     4    1.3186E+01  2.1419E-01   1.2972E+01  0.000E+00  0.000E+00  0.000E+00  1.07838E+03  9.727E-01  9.714E+00  5.391E-02  1.324E+00
   1    4    5     2     1    1.0972E+01  2.9101E-01   1.0681E+01  0.000E+00  0.000E+00  0.000E+00  1.07266E+03  7.309E-01  1.200E+01  7.800E-02  1.244E+00
   1    5    6     2     2    1.0681E+01  2.2322E-01   1.0458E+01  0.000E+00  0.000E+00  0.000E+00  1.06723E+03  7.204E-01  1.200E+01  6.000E-02  1.240E+00
   1    6    6     2     3    1.0458E+01  2.2267E-01   1.0235E+01  0.000E+00  0.000E+00  0.000E+00  1.06250E+03  7.112E-01  1.200E+01  6.000E-02  1.237E+00
   1    7    6     2     4    1.0235E+01  2.2212E-01   1.0013E+01  0.000E+00  0.000E+00  0.000E+00  1.05778E+03  7.020E-01  1.200E+01  6.000E-02  1.234E+00
   1    8    6     2     5    1.0013E+01  2.2157E-01   9.7913E+00  0.000E+00  0.000E+00  0.000E+00  1.05305E+03  6.928E-01  1.200E+01  6.000E-02  1.231E+00
   1    3    5     3     1    2.0000E+00  2.8252E-01   1.7175E+00  0.000E+00  0.000E+00  0.000E+00  1.07555E+03  1.909E+00  9.636E+00  7.227E-02  1.955E+00
   1    3    6     3     2    1.7175E+00  2.4905E-01   1.4684E+00  0.000E+00  0.000E+00  0.000E+00  1.07264E+03  1.727E+00  8.909E+00  6.682E-02  1.864E+00
   1    3    7     3     3    1.4684E+00  1.9718E-01   1.2712E+00  0.000E+00  0.000E+00  0.000E+00  1.06987E+03  1.555E+00  8.218E+00  5.547E-02  1.777E+00
   1    4    8     3     4    1.2712E+00  2.2567E-01   1.0456E+00  0.000E+00  0.000E+00  0.000E+00  1.06682E+03  1.364E+00  7.455E+00  6.709E-02  1.682E+00
   1    5    8     3     5    1.0456E+00  1.5790E-01   8.8768E-01  0.000E+00  0.000E+00  0.000E+00  1.06362E+03  1.164E+00  6.655E+00  4.991E-02  1.582E+00
   1    6    8     3     6    8.8768E-01  5.5980E-02   8.3170E-01  0.000E+00  0.000E+00  0.000E+00  1.06158E+03  1.036E+00  6.145E+00  1.844E-02  1.518E+00
   1    5   10     4     1    1.0000E+01  9.0919E-02   9.9091E+00  0.000E+00  0.000E+00  0.000E+00  1.07836E+03  6.368E-01  1.000E+01  2.500E-02  1.212E+00
   1    5    9     4     2    9.9091E+00  1.8158E-01   9.7275E+00  0.000E+00  0.000E+00  0.000E+00  1.07154E+03  6.315E-01  1.000E+01  5.000E-02  1.211E+00
   1    6    8     4     3    9.7275E+00  1.2689E-01   9.6006E+00  0.000E+00  0.000E+00  0.000E+00  1.06381E+03  6.256E-01  1.000E+01  3.500E-02  1.209E+00
   1    6    8     5     1    1.0432E+01  2.2686E-01   1.0205E+01  0.000E+00  0.000E+00  0.000E+00  1.05868E+03  6.790E-01  1.542E+01  6.166E-02  1.226E+00
   1    7    7     5     2    1.0205E+01  2.7894E-01   9.9265E+00  0.000E+00  0.000E+00  0.000E+00  1.05417E+03  6.732E-01  1.519E+01  7.594E-02  1.224E+00
   1    8    7     5     3    9.9265E+00  1.9221E-01   9.7343E+00  0.000E+00  0.000E+00  0.000E+00  1.04992E+03  6.676E-01  1.497E+01  5.241E-02  1.223E+00
   1    8    6     5     4    9.7343E+00  1.3577E-01   9.5985E+00  0.000E+00  0.000E+00  0.000E+00  1.04691E+03  6.637E-01  1.482E+01  3.706E-02  1.221E+00
   1    9    6     6     1    1.9390E+01  2.4267E-01   1.9147E+01  0.000E+00  0.000E+00  0.000E+00  1.04377E+03  1.044E+00  1.200E+01  6.000E-02  1.348E+00
   1   10    7     6     2    1.9147E+01  2.4219E-01   1.8905E+01  0.000E+00  0.000E+00  0.000E+00  1.03922E+03  1.037E+00  1.200E+01  6.000E-02  1.346E+00
   1   11    7     6     3    1.8905E+01  2.4172E-01   1.8663E+01  0.000E+00  0.000E+00  0.000E+00  1.03466E+03  1.029E+00  1.200E+01  6.000E-02  1.343E+00
   1   12    7     6     4    1.8663E+01  2.4124E-01   1.8422E+01  0.000E+00  0.000E+00  0.000E+00  1.03011E+03  1.021E+00  1.200E+01  6.000E-02  1.340E+00
   1   13    7     6     5    1.8422E+01  1.3877E-02   1.8408E+01  0.000E+00  0.000E+00  0.000E+00  1.02693E+03  1.016E+00  1.200E+01  2.400E-02  1.927E-01
   1   14    9     7     1    1.5000E+02  1.4103E+00   1.4859E+02  0.000E+00  0.000E+00  0.000E+00  1.03987E+03  2.288E+00  5.529E+01  5.593E-01  8.405E-01
   1   13    8     7     2    1.4859E+02  2.0725E+00   1.4652E+02  0.000E+00  0.000E+00  0.000E+00  1.03478E+03  2.278E+00  5.525E+01  6.147E-01  1.124E+00
   1   13    7     7     3    1.4652E+02  1.8647E+00   1.4465E+02  0.000E+00  0.000E+00  0.000E+00  1.02969E+03  2.268E+00  5.520E+01  5.583E-01  1.113E+00
   1   13    6     8     1    1.6306E+02  1.2524E+00   1.6181E+02  0.000E+00  0.000E+00  0.000E+00  1.02478E+03  2.902E+00  4.208E+01  4.288E-01  9.735E-01
   1   13    5     8     2    1.6181E+02  4.7846E-01   1.6133E+02  0.000E+00  0.000E+00  0.000E+00  1.01852E+03  2.896E+00  4.200E+01  4.280E-01  3.727E-01
   1   13    4     8     3    1.6133E+02 -1.4938E+00   1.6282E+02  0.000E+00  0.000E+00  0.000E+00  1.01227E+03  2.900E+00  4.205E+01  4.285E+00 -1.162E-01
   1   13    3     8     4    1.6282E+02 -3.2278E+00   1.6605E+02  0.000E+00  0.000E+00  0.000E+00  1.00604E+03  2.916E+00  4.228E+01  4.308E+00 -2.497E-01
   1   13    2     8     5    1.6605E+02 -2.5573E+00   1.6861E+02  0.000E+00  0.000E+00  0.000E+00  9.99810E+02  2.935E+00  4.255E+01  4.336E+00 -1.966E-01
   1   13    1     8     6    1.6861E+02 -2.0173E+00   1.7063E+02  0.000E+00  0.000E+00  0.000E+00  9.94825E+02  2.950E+00  4.277E+01  2.615E+00 -2.571E-01
   1    8    6     9     1    0.0000E+00  0.0000E+00   0.0000E+00  0.000E+00  0.000E+00  0.000E+00  1.07875E+03  0.000E+00  4.000E+00  0.000E+00  1.000E+00
   1    8    5     9     2    0.0000E+00  0.0000E+00   0.0000E+00  0.000E+00  0.000E+00  0.000E+00  1.07825E+03  0.000E+00  4.000E+00  0.000E+00  1.000E+00





UNSATURATED ZONE PACKAGE VOLUMETRIC BUDGET FOR  TIME STEP    30 STRESS PERIOD   44
  ------------------------------------------------------------------------------



     CUMULATIVE VOLUMES      L**3       RATES FOR THIS TIME STEP      L**3/T
     ------------------                 ------------------------

           IN:                                      IN:
           ---                                      ---
        INFILTRATION =  1536158086.1321          INFILTRATION =          60.8175

          OUT:                                     OUT:
          ----                                     ----
              UZF ET =  1535332521.1589                UZF ET =          60.8175
        UZF RECHARGE =       73224.0000          UZF RECHARGE =       0.0000E+00

            IN - OUT =      752340.9732              IN - OUT =       0.0000E+00

          STORAGE:                                 STORAGE:
          --------                                 --------
      STORAGE CHANGE =      752341.1305        STORAGE CHANGE =      -8.2996E-16

 PERCENT DISCREPANCY IS DIFFERENCE BETWEEN IN-OUT MINUS CHANGE IN STORAGE
 DIVIDED BY THE AVERAGE OF IN AND OUT TIMES 100

 PERCENT DISCREPANCY =           0.00     PERCENT DISCREPANCY =           0.00






1
  VOLUMETRIC BUDGET FOR AGRICULTURAL FIELDS AT  END OF TIME STEP   30, STRESS PERIOD  44
  ------------------------------------------------------------------------------

     CUMULATIVE VOLUMES      L**3       RATES FOR THIS TIME STEP      L**3/T
     ------------------                 ------------------------

           IN:                                      IN:
           ---                                      ---
               AG WELLS  =  1440238464.0000                 AG WELLS  =          59.9700
      DIVERSION SEGMENTS =           0.0000        DIVERSION SEGMENTS =           0.0000
       IRRIGATION PONDS  =           0.0000         IRRIGATION PONDS  =           0.0000
           GW IRRIGATION =           0.0000             GW IRRIGATION =           0.0000
           SW IRRIGATION =           0.0000             SW IRRIGATION =           0.0000
        SYSTEM LOSSES GW =           0.0000          SYSTEM LOSSES GW =           0.0000
        SYSTEM LOSSES SW =           0.0000          SYSTEM LOSSES SW =           0.0000

                TOTAL IN =  1440238464.0000                  TOTAL IN =          59.9700

          OUT:                                     OUT:
          ----                                     ----
               AG WELLS  =           0.0000                 AG WELLS  =           0.0000
      DIVERSION SEGMENTS =           0.0000        DIVERSION SEGMENTS =           0.0000
       IRRIGATION PONDS  =           0.0000         IRRIGATION PONDS  =           0.0000
           GW IRRIGATION =  1440238464.0000             GW IRRIGATION =          59.9700
           SW IRRIGATION =           0.0000             SW IRRIGATION =           0.0000
        SYSTEM LOSSES GW =           0.0000          SYSTEM LOSSES GW =           0.0000
        SYSTEM LOSSES SW =           0.0000          SYSTEM LOSSES SW =           0.0000

               TOTAL OUT =  1440238464.0000                 TOTAL OUT =          59.9700

                IN - OUT =           0.0000                  IN - OUT =           0.0000

     PERCENT DISCREPANCY =           0.00         PERCENT DISCREPANCY =           0.00



1
  VOLUMETRIC BUDGET FOR ENTIRE MODEL AT END OF TIME STEP   30, STRESS PERIOD  44
  ------------------------------------------------------------------------------

     CUMULATIVE VOLUMES      L**3       RATES FOR THIS TIME STEP      L**3/T
     ------------------                 ------------------------

           IN:                                      IN:
           ---                                      ---
             STORAGE     =  1867708928.0000               STORAGE     =          56.7657
       CONSTANT HEAD     =           0.0000         CONSTANT HEAD     =           0.0000
     HEAD DEP BOUNDS     =    32687284.0000       HEAD DEP BOUNDS     =           0.2908
      STREAM LEAKAGE     =  1377629440.0000        STREAM LEAKAGE     =          12.5447
        UZF RECHARGE     =       73223.9531          UZF RECHARGE     =           0.0000
               GW ET     =           0.0000                 GW ET     =           0.0000
     SURFACE LEAKAGE     =           0.0000       SURFACE LEAKAGE     =           0.0000
           AG WELLS      =           0.0000             AG WELLS      =           0.0000

                TOTAL IN =  3278098944.0000                  TOTAL IN =          69.6013

          OUT:                                     OUT:
          ----                                     ----
             STORAGE     =   713838144.0000               STORAGE     =       4.6627E-02
       CONSTANT HEAD     =           0.0000         CONSTANT HEAD     =           0.0000
     HEAD DEP BOUNDS     =    32684614.0000       HEAD DEP BOUNDS     =           0.2887
      STREAM LEAKAGE     =  1091349632.0000        STREAM LEAKAGE     =           9.2962
        UZF RECHARGE     =           0.0000          UZF RECHARGE     =           0.0000
               GW ET     =           0.0000                 GW ET     =           0.0000
     SURFACE LEAKAGE     =           0.0000       SURFACE LEAKAGE     =           0.0000
           AG WELLS      =  1440238464.0000             AG WELLS      =          59.9700

               TOTAL OUT =  3278110720.0000                 TOTAL OUT =          69.6015

                IN - OUT =      -11776.0000                  IN - OUT =      -1.9836E-04

     PERCENT DISCREPANCY =          -0.00         PERCENT DISCREPANCY =          -0.00






         TIME SUMMARY AT END OF TIME STEP   30 IN STRESS PERIOD   44
                    SECONDS     MINUTES      HOURS       DAYS        YEARS
                    -----------------------------------------------------------
   TIME STEP LENGTH  87667.      1461.1      24.352      1.0147     2.77799E-03
 STRESS PERIOD TIME 2.63000E+06  43833.      730.56      30.440     8.33397E-02
         TOTAL TIME 1.13175E+08 1.88626E+06  31438.      1309.9      3.5863    
1
1
                            STRESS PERIOD NO.   45, LENGTH =   2630000.    
                            -----------------------------------------------

                              NUMBER OF TIME STEPS =    30

                               MULTIPLIER FOR DELT =     1.000

                            INITIAL TIME STEP SIZE =   87666.66    

 REUSING NON-PARAMETER GHB CELLS FROM LAST STRESS PERIOD

      2 GHB CELLS

 REUSING STREAM SEGMENT DATA FROM LAST STRESS PERIOD



            AREAL INFILTRATION RATE
 READING ON UNIT   19 WITH FORMAT: (FREE)              

            1           2           3           4           5           6           7           8           9          10
 ........................................................................................................................
   1   1.0000E-10  2.0000E-10   0.000       0.000       0.000       0.000       0.000       0.000       0.000       0.000    
   2   2.0000E-10  1.0000E-10  2.0000E-10   0.000       0.000      8.0000E-10  8.0000E-10  5.0000E-10   0.000       0.000    
   3    0.000      5.0000E-10  1.0000E-10  1.0000E-10  8.0000E-10  8.0000E-10  5.0000E-10  5.0000E-10   0.000       0.000    
   4   8.0000E-10  5.0000E-10  1.0000E-10  1.0000E-10  1.0000E-10  1.0000E-10  1.0000E-10  1.0000E-10  2.0000E-10   0.000    
   5   8.0000E-10  5.0000E-10  1.0000E-10  1.0000E-10  1.0000E-10  1.0000E-10  1.0000E-10  1.0000E-10  1.0000E-10  1.0000E-10
   6   8.0000E-10  5.0000E-10  5.0000E-10  2.0000E-10  2.0000E-10  1.0000E-10  1.0000E-10  1.0000E-10  1.0000E-10  5.0000E-10
   7   8.0000E-10  5.0000E-10  5.0000E-10  2.0000E-10  2.0000E-10  1.0000E-10  1.0000E-10  2.0000E-10  2.0000E-10   0.000    
   8    0.000      5.0000E-10  5.0000E-10  2.0000E-10  2.0000E-10  1.0000E-10  1.0000E-10  2.0000E-10  5.0000E-10   0.000    
   9    0.000      5.0000E-10  5.0000E-10  2.0000E-10  2.0000E-10  1.0000E-10  1.0000E-10  2.0000E-10  5.0000E-10   0.000    
  10    0.000      5.0000E-10  5.0000E-10  2.0000E-10  2.0000E-10  1.0000E-10  1.0000E-10  2.0000E-10  5.0000E-10  8.0000E-10
  11    0.000      1.0000E-10  1.0000E-10  1.0000E-10  1.0000E-10  1.0000E-10  1.0000E-10  2.0000E-10  5.0000E-10   0.000    
  12   1.0000E-10  1.0000E-10  1.0000E-10  1.0000E-10  1.0000E-10  1.0000E-10  1.0000E-10  1.0000E-10  2.0000E-10   0.000    
  13   1.0000E-10  1.0000E-10  2.0000E-10  2.0000E-10  2.0000E-10  2.0000E-10  2.0000E-10  1.0000E-10  1.0000E-10   0.000    
  14    0.000      2.0000E-10  5.0000E-10  5.0000E-10  5.0000E-10  5.0000E-10  5.0000E-10  2.0000E-10  1.0000E-10   0.000    
  15    0.000       0.000      8.0000E-10  8.0000E-10  8.0000E-10  8.0000E-10   0.000       0.000       0.000       0.000    

                  ET RATE =  3.250000E-07

 USING ET EXTINCTION DEPTH FROM PREVIOUS STRESS PERIOD. CURRENT PERIOD IS:      45

 USING EXTINCTION WATER CONTENT FROM PREVIOUS STRESS PERIOD. CURRENT PERIOD IS:      45

 USING AIR ENTRY PRESSURE FROM PREVIOUS STRESS PERIOD. CURRENT PERIOD IS:      45

 USING ROOT PRESSURE HEAD FROM PREVIOUS STRESS PERIOD. CURRENT PERIOD IS:      45

 USING ROOT ACTIVITY FROM PREVIOUS STRESS PERIOD. CURRENT PERIOD IS:      45

 PROCESSING AG STRESS PERIOD DATA

 READING AG STRESS PERIOD DATA

 READING IRRIGATION SEGMENT

 READING IRRIGATION WELL

 READING SUPPLEMENTAL WELL

 NO IRRPOND OR REUSING IRRPOND DATA FROM LAST STRESS PERIOD

 END PROCESSING AG STRESS PERIOD DATA OPTIONS
 
 SOLVING FOR HEAD 
                                                   Max.-Head-Change                         Max.-Flux-Residual
  Residual-Control   Outer-Iter.   Inner-Iter.     Column Row Layer    Maximum-Head-Change  Column Row Layer    Maximum-Flux-Residual          L2-NORM 
          0                 1           2             4    7     1      -0.8807721528E-01       4    7    1        -0.4632097291E+01      0.1018458918E+02
          0                 2           2             4    7     1       0.8567339862E-02       4    7    1         0.4631981659E+00      0.1018437059E+01
          0                 3           2             4    7     1      -0.5834057598E-03       4    7    1        -0.3242399503E-01      0.7128942884E-01
          0                 4           1             4    7     1       0.2321425381E-04       4    7    1         0.1326142738E-02      0.2915667387E-02

    ------------------------------------------------
       NWT REQUIRED            4 OUTER ITERATIONS 
       AND A TOTAL OF          7 INNER ITERATIONS.
    ------------------------------------------------

 NO OUTPUT CONTROL FOR STRESS PERIOD   45   TIME STEP    1
 
 SOLVING FOR HEAD 
                                                   Max.-Head-Change                         Max.-Flux-Residual
  Residual-Control   Outer-Iter.   Inner-Iter.     Column Row Layer    Maximum-Head-Change  Column Row Layer    Maximum-Flux-Residual          L2-NORM 
          0                 1           2             4    7     1      -0.8702801086E-01       4    7    1        -0.4576192034E+01      0.1012008744E+02
          0                 2           2             4    7     1       0.8465285849E-02       4    7    1         0.4576079777E+00      0.1011988845E+01
          0                 3           2             4    7     1      -0.5764562115E-03       4    7    1        -0.3203267849E-01      0.7083821844E-01
          0                 4           1             4    7     1       0.2293772515E-04       4    7    1         0.1310137897E-02      0.2897231242E-02

    ------------------------------------------------
       NWT REQUIRED            4 OUTER ITERATIONS 
       AND A TOTAL OF          7 INNER ITERATIONS.
    ------------------------------------------------

 NO OUTPUT CONTROL FOR STRESS PERIOD   45   TIME STEP    2
 
 SOLVING FOR HEAD 
                                                   Max.-Head-Change                         Max.-Flux-Residual
  Residual-Control   Outer-Iter.   Inner-Iter.     Column Row Layer    Maximum-Head-Change  Column Row Layer    Maximum-Flux-Residual          L2-NORM 
          0                 1           2             4    7     1      -0.8600470704E-01       4    7    1        -0.4521674332E+01      0.1005710682E+02
          0                 2           2             4    7     1       0.8365751079E-02       4    7    1         0.4521565327E+00      0.1005692536E+01
          0                 3           2             4    7     1      -0.5696782156E-03       4    7    1        -0.3165107410E-01      0.7039763769E-01
          0                 4           1             4    7     1       0.2266802216E-04       4    7    1         0.1294530251E-02      0.2879204634E-02

    ------------------------------------------------
       NWT REQUIRED            4 OUTER ITERATIONS 
       AND A TOTAL OF          7 INNER ITERATIONS.
    ------------------------------------------------

 NO OUTPUT CONTROL FOR STRESS PERIOD   45   TIME STEP    3
 
 SOLVING FOR HEAD 
                                                   Max.-Head-Change                         Max.-Flux-Residual
  Residual-Control   Outer-Iter.   Inner-Iter.     Column Row Layer    Maximum-Head-Change  Column Row Layer    Maximum-Flux-Residual          L2-NORM 
          0                 1           2             4    7     1      -0.8500659737E-01       4    7    1        -0.4468506826E+01      0.9995571101E+01
          0                 2           2             4    7     1       0.8268666836E-02       4    7    1         0.4468400953E+00      0.9995405257E+00
          0                 3           2             4    7     1      -0.5630670933E-03       4    7    1        -0.3127892035E-01      0.6996712702E-01
          0                 4           1             4    7     1       0.2240495974E-04       4    7    1         0.1279309156E-02      0.2861611035E-02

    ------------------------------------------------
       NWT REQUIRED            4 OUTER ITERATIONS 
       AND A TOTAL OF          7 INNER ITERATIONS.
    ------------------------------------------------

 NO OUTPUT CONTROL FOR STRESS PERIOD   45   TIME STEP    4
 
 SOLVING FOR HEAD 
                                                   Max.-Head-Change                         Max.-Flux-Residual
  Residual-Control   Outer-Iter.   Inner-Iter.     Column Row Layer    Maximum-Head-Change  Column Row Layer    Maximum-Flux-Residual          L2-NORM 
          0                 1           2             4    7     1      -0.8403298410E-01       4    7    1        -0.4416652881E+01      0.9935406980E+01
          0                 2           2             4    7     1       0.8173965255E-02       4    7    1         0.4416550025E+00      0.9935254613E+00
          0                 3           2             4    7     1      -0.5566182234E-03       4    7    1        -0.3091596084E-01      0.6954620784E-01
          0                 4           1             4    7     1       0.2214835379E-04       4    7    1         0.1264464109E-02      0.2844401258E-02

    ------------------------------------------------
       NWT REQUIRED            4 OUTER ITERATIONS 
       AND A TOTAL OF          7 INNER ITERATIONS.
    ------------------------------------------------

 NO OUTPUT CONTROL FOR STRESS PERIOD   45   TIME STEP    5
 
 SOLVING FOR HEAD 
                                                   Max.-Head-Change                         Max.-Flux-Residual
  Residual-Control   Outer-Iter.   Inner-Iter.     Column Row Layer    Maximum-Head-Change  Column Row Layer    Maximum-Flux-Residual          L2-NORM 
          0                 1           2             4    7     1      -0.8308278289E-01       4    7    1        -0.4366054743E+01      0.9876538787E+01
          0                 2           2             4    7     1       0.8081540868E-02       4    7    1         0.4365954794E+00      0.9876397545E+00
          0                 3           2             4    7     1      -0.5503244237E-03       4    7    1        -0.3056179133E-01      0.6913423816E-01
          0                 4           1             4    7     1       0.2189791776E-04       4    7    1         0.1249978578E-02      0.2827541807E-02

    ------------------------------------------------
       NWT REQUIRED            4 OUTER ITERATIONS 
       AND A TOTAL OF          7 INNER ITERATIONS.
    ------------------------------------------------

 NO OUTPUT CONTROL FOR STRESS PERIOD   45   TIME STEP    6
 
 SOLVING FOR HEAD 
                                                   Max.-Head-Change                         Max.-Flux-Residual
  Residual-Control   Outer-Iter.   Inner-Iter.     Column Row Layer    Maximum-Head-Change  Column Row Layer    Maximum-Flux-Residual          L2-NORM 
          0                 1           2             4    7     1      -0.8215560740E-01       4    7    1        -0.4316692140E+01      0.9818918283E+01
          0                 2           2             4    7     1       0.7991356096E-02       4    7    1         0.4316594991E+00      0.9818787138E+00
          0                 3           2             4    7     1      -0.5441831344E-03       4    7    1        -0.3021626989E-01      0.6873105386E-01
          0                 4           1             4    7     1       0.2165355022E-04       4    7    1         0.1235846737E-02      0.2811068631E-02

    ------------------------------------------------
       NWT REQUIRED            4 OUTER ITERATIONS 
       AND A TOTAL OF          7 INNER ITERATIONS.
    ------------------------------------------------

 NO OUTPUT CONTROL FOR STRESS PERIOD   45   TIME STEP    7
 
 SOLVING FOR HEAD 
                                                   Max.-Head-Change                         Max.-Flux-Residual
  Residual-Control   Outer-Iter.   Inner-Iter.     Column Row Layer    Maximum-Head-Change  Column Row Layer    Maximum-Flux-Residual          L2-NORM 
          0                 1           2             4    7     1      -0.8125041299E-01       4    7    1        -0.4268509091E+01      0.9762488128E+01
          0                 2           2             4    7     1       0.7903309334E-02       4    7    1         0.4268414638E+00      0.9762365922E+00
          0                 3           2             4    7     1      -0.5381874381E-03       4    7    1        -0.2987900476E-01      0.6833618265E-01
          0                 4           1             4    7     1       0.2141497601E-04       4    7    1         0.1222052591E-02      0.2794928726E-02

    ------------------------------------------------
       NWT REQUIRED            4 OUTER ITERATIONS 
       AND A TOTAL OF          7 INNER ITERATIONS.
    ------------------------------------------------

 NO OUTPUT CONTROL FOR STRESS PERIOD   45   TIME STEP    8
 
 SOLVING FOR HEAD 
                                                   Max.-Head-Change                         Max.-Flux-Residual
  Residual-Control   Outer-Iter.   Inner-Iter.     Column Row Layer    Maximum-Head-Change  Column Row Layer    Maximum-Flux-Residual          L2-NORM 
          0                 1           2             4    7     1      -0.8036671694E-01       4    7    1        -0.4221480182E+01      0.9707201916E+01
          0                 2           2             4    7     1       0.7817353630E-02       4    7    1         0.4221388327E+00      0.9707087442E+00
          0                 3           2             4    7     1      -0.5323341354E-03       4    7    1        -0.2954981796E-01      0.6794928502E-01
          0                 4           1             4    7     1       0.2118206746E-04       4    7    1         0.1208588831E-02      0.2779107097E-02

    ------------------------------------------------
       NWT REQUIRED            4 OUTER ITERATIONS 
       AND A TOTAL OF          7 INNER ITERATIONS.
    ------------------------------------------------

 NO OUTPUT CONTROL FOR STRESS PERIOD   45   TIME STEP    9
 
 SOLVING FOR HEAD 
                                                   Max.-Head-Change                         Max.-Flux-Residual
  Residual-Control   Outer-Iter.   Inner-Iter.     Column Row Layer    Maximum-Head-Change  Column Row Layer    Maximum-Flux-Residual          L2-NORM 
          0                 1           2             4    7     1      -0.7950391496E-01       4    7    1        -0.4175573191E+01      0.9653019139E+01
          0                 2           2             4    7     1       0.7733430209E-02       4    7    1         0.4175483838E+00      0.9652911648E+00
          0                 3           2             4    7     1      -0.5266192256E-03       4    7    1        -0.2922848403E-01      0.6757010880E-01
          0                 4           1             4    7     1       0.2095466616E-04       4    7    1         0.1195446267E-02      0.2763607123E-02

    ------------------------------------------------
       NWT REQUIRED            4 OUTER ITERATIONS 
       AND A TOTAL OF          7 INNER ITERATIONS.
    ------------------------------------------------

 NO OUTPUT CONTROL FOR STRESS PERIOD   45   TIME STEP   10
 
 SOLVING FOR HEAD 
                                                   Max.-Head-Change                         Max.-Flux-Residual
  Residual-Control   Outer-Iter.   Inner-Iter.     Column Row Layer    Maximum-Head-Change  Column Row Layer    Maximum-Flux-Residual          L2-NORM 
          0                 1           2             4    7     1      -0.7866102262E-01       4    7    1        -0.4130735231E+01      0.9599888084E+01
          0                 2           2             4    7     1       0.7651443319E-02       4    7    1         0.4130648289E+00      0.9599786744E+00
          0                 3           2             4    7     1      -0.5210361874E-03       4    7    1        -0.2891463276E-01      0.6719825998E-01
          0                 4           1             4    7     1       0.2073251214E-04       4    7    1         0.1182609744E-02      0.2748392645E-02

    ------------------------------------------------
       NWT REQUIRED            4 OUTER ITERATIONS 
       AND A TOTAL OF          7 INNER ITERATIONS.
    ------------------------------------------------

 NO OUTPUT CONTROL FOR STRESS PERIOD   45   TIME STEP   11
 
 SOLVING FOR HEAD 
                                                   Max.-Head-Change                         Max.-Flux-Residual
  Residual-Control   Outer-Iter.   Inner-Iter.     Column Row Layer    Maximum-Head-Change  Column Row Layer    Maximum-Flux-Residual          L2-NORM 
          0                 1           2             4    7     1      -0.7783748967E-01       4    7    1        -0.4086936811E+01      0.9547775713E+01
          0                 2           2             4    7     1       0.7571339441E-02       4    7    1         0.4086852192E+00      0.9547679851E+00
          0                 3           2             4    7     1      -0.5155813771E-03       4    7    1        -0.2860805776E-01      0.6683356286E-01
          0                 4           1             4    7     1       0.2051546035E-04       4    7    1         0.1170070821E-02      0.2733484356E-02

    ------------------------------------------------
       NWT REQUIRED            4 OUTER ITERATIONS 
       AND A TOTAL OF          7 INNER ITERATIONS.
    ------------------------------------------------

 NO OUTPUT CONTROL FOR STRESS PERIOD   45   TIME STEP   12
 
 SOLVING FOR HEAD 
                                                   Max.-Head-Change                         Max.-Flux-Residual
  Residual-Control   Outer-Iter.   Inner-Iter.     Column Row Layer    Maximum-Head-Change  Column Row Layer    Maximum-Flux-Residual          L2-NORM 
          0                 1           2             4    7     1      -0.7703291107E-01       4    7    1        -0.4044156580E+01      0.9496652889E+01
          0                 2           2             4    7     1       0.7493079180E-02       4    7    1         0.4044074199E+00      0.9496561819E+00
          0                 3           2             4    7     1      -0.5102521113E-03       4    7    1        -0.2830860957E-01      0.6647575614E-01
          0                 4           1             4    7     1       0.2030340395E-04       4    7    1         0.1157823390E-02      0.2718846937E-02

    ------------------------------------------------
       NWT REQUIRED            4 OUTER ITERATIONS 
       AND A TOTAL OF          7 INNER ITERATIONS.
    ------------------------------------------------

 NO OUTPUT CONTROL FOR STRESS PERIOD   45   TIME STEP   13
 
 SOLVING FOR HEAD 
                                                   Max.-Head-Change                         Max.-Flux-Residual
  Residual-Control   Outer-Iter.   Inner-Iter.     Column Row Layer    Maximum-Head-Change  Column Row Layer    Maximum-Flux-Residual          L2-NORM 
          0                 1           2             4    7     1      -0.7624637438E-01       4    7    1        -0.4002344807E+01      0.9446486771E+01
          0                 2           2             4    7     1       0.7416573786E-02       4    7    1         0.4002264583E+00      0.9446400216E+00
          0                 3           2             4    7     1      -0.5050423462E-03       4    7    1        -0.2801594008E-01      0.6612467078E-01
          0                 4           1             4    7     1       0.2009610243E-04       4    7    1         0.1145853186E-02      0.2704497170E-02

    ------------------------------------------------
       NWT REQUIRED            4 OUTER ITERATIONS 
       AND A TOTAL OF          7 INNER ITERATIONS.
    ------------------------------------------------

 NO OUTPUT CONTROL FOR STRESS PERIOD   45   TIME STEP   14
 
 SOLVING FOR HEAD 
                                                   Max.-Head-Change                         Max.-Flux-Residual
  Residual-Control   Outer-Iter.   Inner-Iter.     Column Row Layer    Maximum-Head-Change  Column Row Layer    Maximum-Flux-Residual          L2-NORM 
          0                 1           2             4    7     1      -0.7547751927E-01       4    7    1        -0.3961482904E+01      0.9397244142E+01
          0                 2           2             4    7     1       0.7341788214E-02       4    7    1         0.3961404760E+00      0.9397161405E+00
          0                 3           2             4    7     1      -0.4999496964E-03       4    7    1        -0.2772991923E-01      0.6578001401E-01
          0                 4           1             4    7     1       0.1989346127E-04       4    7    1         0.1134154940E-02      0.2690390499E-02

    ------------------------------------------------
       NWT REQUIRED            4 OUTER ITERATIONS 
       AND A TOTAL OF          7 INNER ITERATIONS.
    ------------------------------------------------

 NO OUTPUT CONTROL FOR STRESS PERIOD   45   TIME STEP   15
 
 SOLVING FOR HEAD 
                                                   Max.-Head-Change                         Max.-Flux-Residual
  Residual-Control   Outer-Iter.   Inner-Iter.     Column Row Layer    Maximum-Head-Change  Column Row Layer    Maximum-Flux-Residual          L2-NORM 
          0                 1           2             4    7     1      -0.7472560958E-01       4    7    1        -0.3921530648E+01      0.9348898686E+01
          0                 2           2             4    7     1       0.7268650860E-02       4    7    1         0.3921454510E+00      0.9348819700E+00
          0                 3           2             4    7     1      -0.4949692848E-03       4    7    1        -0.2745026547E-01      0.6544164480E-01
          0                 4           1             4    7     1       0.1969528615E-04       4    7    1         0.1122717081E-02      0.2676553956E-02

    ------------------------------------------------
       NWT REQUIRED            4 OUTER ITERATIONS 
       AND A TOTAL OF          7 INNER ITERATIONS.
    ------------------------------------------------

 NO OUTPUT CONTROL FOR STRESS PERIOD   45   TIME STEP   16
 
 SOLVING FOR HEAD 
                                                   Max.-Head-Change                         Max.-Flux-Residual
  Residual-Control   Outer-Iter.   Inner-Iter.     Column Row Layer    Maximum-Head-Change  Column Row Layer    Maximum-Flux-Residual          L2-NORM 
          0                 1           2             4    7     1      -0.7399019640E-01       4    7    1        -0.3882464224E+01      0.9301425254E+01
          0                 2           2             4    7     1       0.7197118063E-02       4    7    1         0.3882390020E+00      0.9301349242E+00
          0                 3           2             4    7     1      -0.4900981385E-03       4    7    1        -0.2717681208E-01      0.6510936285E-01
          0                 4           1             4    7     1       0.1950145893E-04       4    7    1         0.1111532839E-02      0.2662970497E-02

    ------------------------------------------------
       NWT REQUIRED            4 OUTER ITERATIONS 
       AND A TOTAL OF          7 INNER ITERATIONS.
    ------------------------------------------------

 NO OUTPUT CONTROL FOR STRESS PERIOD   45   TIME STEP   17
 
 SOLVING FOR HEAD 
                                                   Max.-Head-Change                         Max.-Flux-Residual
  Residual-Control   Outer-Iter.   Inner-Iter.     Column Row Layer    Maximum-Head-Change  Column Row Layer    Maximum-Flux-Residual          L2-NORM 
          0                 1           2             4    7     1      -0.7327071398E-01       4    7    1        -0.3844253177E+01      0.9254790446E+01
          0                 2           2             4    7     1       0.7127134792E-02       4    7    1         0.3844180839E+00      0.9254717418E+00
          0                 3           2             4    7     1      -0.4853325108E-03       4    7    1        -0.2690934595E-01      0.6478296686E-01
          0                 4           1             4    7     1       0.1931183053E-04       4    7    1         0.1100593479E-02      0.2649620662E-02

    ------------------------------------------------
       NWT REQUIRED            4 OUTER ITERATIONS 
       AND A TOTAL OF          7 INNER ITERATIONS.
    ------------------------------------------------

 NO OUTPUT CONTROL FOR STRESS PERIOD   45   TIME STEP   18
 
 SOLVING FOR HEAD 
                                                   Max.-Head-Change                         Max.-Flux-Residual
  Residual-Control   Outer-Iter.   Inner-Iter.     Column Row Layer    Maximum-Head-Change  Column Row Layer    Maximum-Flux-Residual          L2-NORM 
          0                 1           2             4    7     1      -0.7256662022E-01       4    7    1        -0.3806868173E+01      0.9208982303E+01
          0                 2           2             4    7     1       0.7058648323E-02       4    7    1         0.3806797634E+00      0.9208911901E+00
          0                 3           2             4    7     1      -0.4806688097E-03       4    7    1        -0.2664766168E-01      0.6446234839E-01
          0                 4           1             4    7     1       0.1912625750E-04       4    7    1         0.1089890578E-02      0.2636512902E-02

    ------------------------------------------------
       NWT REQUIRED            4 OUTER ITERATIONS 
       AND A TOTAL OF          7 INNER ITERATIONS.
    ------------------------------------------------

 NO OUTPUT CONTROL FOR STRESS PERIOD   45   TIME STEP   19
 
 SOLVING FOR HEAD 
                                                   Max.-Head-Change                         Max.-Flux-Residual
  Residual-Control   Outer-Iter.   Inner-Iter.     Column Row Layer    Maximum-Head-Change  Column Row Layer    Maximum-Flux-Residual          L2-NORM 
          0                 1           2             4    7     1      -0.7187752923E-01       4    7    1        -0.3770288276E+01      0.9163973396E+01
          0                 2           2             4    7     1       0.6991621123E-02       4    7    1         0.3770219474E+00      0.9163905331E+00
          0                 3           2             4    7     1      -0.4761044811E-03       4    7    1        -0.2639161282E-01      0.6414729220E-01
          0                 4           1             4    7     1       0.1894463888E-04       4    7    1         0.1079418182E-02      0.2623616002E-02

    ------------------------------------------------
       NWT REQUIRED            4 OUTER ITERATIONS 
       AND A TOTAL OF          7 INNER ITERATIONS.
    ------------------------------------------------

 NO OUTPUT CONTROL FOR STRESS PERIOD   45   TIME STEP   20
 
 SOLVING FOR HEAD 
                                                   Max.-Head-Change                         Max.-Flux-Residual
  Residual-Control   Outer-Iter.   Inner-Iter.     Column Row Layer    Maximum-Head-Change  Column Row Layer    Maximum-Flux-Residual          L2-NORM 
          0                 1           2             4    7     1      -0.7120292887E-01       4    7    1        -0.3734486301E+01      0.9119743000E+01
          0                 2           2             4    7     1       0.6926003376E-02       4    7    1         0.3734419177E+00      0.9119677152E+00
          0                 3           2             4    7     1      -0.4716361310E-03       4    7    1        -0.2614100903E-01      0.6383770951E-01
          0                 4           1             4    7     1       0.1876683869E-04       4    7    1         0.1069168451E-02      0.2610956296E-02

    ------------------------------------------------
       NWT REQUIRED            4 OUTER ITERATIONS 
       AND A TOTAL OF          7 INNER ITERATIONS.
    ------------------------------------------------

 NO OUTPUT CONTROL FOR STRESS PERIOD   45   TIME STEP   21
 
 SOLVING FOR HEAD 
                                                   Max.-Head-Change                         Max.-Flux-Residual
  Residual-Control   Outer-Iter.   Inner-Iter.     Column Row Layer    Maximum-Head-Change  Column Row Layer    Maximum-Flux-Residual          L2-NORM 
          0                 1           2             4    7     1      -0.7054220357E-01       4    7    1        -0.3699428524E+01      0.9076273807E+01
          0                 2           2             4    7     1       0.6861735211E-02       4    7    1         0.3699363019E+00      0.9076210064E+00
          0                 3           2             4    7     1      -0.4672596842E-03       4    7    1        -0.2589561429E-01      0.6353346395E-01
          0                 4           1             4    7     1       0.1859269588E-04       4    7    1         0.1059131815E-02      0.2598518312E-02

    ------------------------------------------------
       NWT REQUIRED            4 OUTER ITERATIONS 
       AND A TOTAL OF          7 INNER ITERATIONS.
    ------------------------------------------------

 NO OUTPUT CONTROL FOR STRESS PERIOD   45   TIME STEP   22
 
 SOLVING FOR HEAD 
                                                   Max.-Head-Change                         Max.-Flux-Residual
  Residual-Control   Outer-Iter.   Inner-Iter.     Column Row Layer    Maximum-Head-Change  Column Row Layer    Maximum-Flux-Residual          L2-NORM 
          0                 1           2             4    7     1      -0.6989515729E-01       4    7    1        -0.3665104539E+01      0.9033544007E+01
          0                 2           2             4    7     1       0.6798797560E-02       4    7    1         0.3665040598E+00      0.9033482081E+00
          0                 3           2             4    7     1      -0.4629738407E-03       4    7    1        -0.2565535575E-01      0.6323435954E-01
          0                 4           1             4    7     1       0.1842215840E-04       4    7    1         0.1049305228E-02      0.2586275339E-02

    ------------------------------------------------
       NWT REQUIRED            4 OUTER ITERATIONS 
       AND A TOTAL OF          7 INNER ITERATIONS.
    ------------------------------------------------

 NO OUTPUT CONTROL FOR STRESS PERIOD   45   TIME STEP   23
 
 SOLVING FOR HEAD 
                                                   Max.-Head-Change                         Max.-Flux-Residual
  Residual-Control   Outer-Iter.   Inner-Iter.     Column Row Layer    Maximum-Head-Change  Column Row Layer    Maximum-Flux-Residual          L2-NORM 
          0                 1           2             4    7     1      -0.6926120011E-01       4    7    1        -0.3631482668E+01      0.8991533036E+01
          0                 2           2             4    7     1       0.6737133044E-02       4    7    1         0.3631420237E+00      0.8991472814E+00
          0                 3           2             4    7     1      -0.4587746940E-03       4    7    1        -0.2542001171E-01      0.6294030439E-01
          0                 4           1             4    7     1       0.1825507049E-04       4    7    1         0.1039679649E-02      0.2574252596E-02

    ------------------------------------------------
       NWT REQUIRED            4 OUTER ITERATIONS 
       AND A TOTAL OF          7 INNER ITERATIONS.
    ------------------------------------------------

 NO OUTPUT CONTROL FOR STRESS PERIOD   45   TIME STEP   24
 
 SOLVING FOR HEAD 
                                                   Max.-Head-Change                         Max.-Flux-Residual
  Residual-Control   Outer-Iter.   Inner-Iter.     Column Row Layer    Maximum-Head-Change  Column Row Layer    Maximum-Flux-Residual          L2-NORM 
          0                 1           2             4    7     1      -0.6864003803E-01       4    7    1        -0.3598546661E+01      0.8950230734E+01
          0                 2           2             4    7     1       0.6676713069E-02       4    7    1         0.3598485692E+00      0.8950172202E+00
          0                 3           2             4    7     1      -0.4546602966E-03       4    7    1        -0.2518946841E-01      0.6265121093E-01
          0                 4           1             4    7     1       0.1809135490E-04       4    7    1         0.1030250417E-02      0.2562432393E-02

    ------------------------------------------------
       NWT REQUIRED            4 OUTER ITERATIONS 
       AND A TOTAL OF          7 INNER ITERATIONS.
    ------------------------------------------------

 NO OUTPUT CONTROL FOR STRESS PERIOD   45   TIME STEP   25
 
 SOLVING FOR HEAD 
                                                   Max.-Head-Change                         Max.-Flux-Residual
  Residual-Control   Outer-Iter.   Inner-Iter.     Column Row Layer    Maximum-Head-Change  Column Row Layer    Maximum-Flux-Residual          L2-NORM 
          0                 1           2             4    7     1      -0.6803111424E-01       4    7    1        -0.3566266939E+01      0.8909607580E+01
          0                 2           2             4    7     1       0.6617483472E-02       4    7    1         0.3566207382E+00      0.8909550566E+00
          0                 3           2             4    7     1      -0.4506269608E-03       4    7    1        -0.2496351882E-01      0.6236686958E-01
          0                 4           1             4    7     1       0.1793086495E-04       4    7    1         0.1021009086E-02      0.2550801933E-02

    ------------------------------------------------
       NWT REQUIRED            4 OUTER ITERATIONS 
       AND A TOTAL OF          7 INNER ITERATIONS.
    ------------------------------------------------

 NO OUTPUT CONTROL FOR STRESS PERIOD   45   TIME STEP   26
 
 SOLVING FOR HEAD 
                                                   Max.-Head-Change                         Max.-Flux-Residual
  Residual-Control   Outer-Iter.   Inner-Iter.     Column Row Layer    Maximum-Head-Change  Column Row Layer    Maximum-Flux-Residual          L2-NORM 
          0                 1           2             4    7     1      -0.6743416568E-01       4    7    1        -0.3534628965E+01      0.8869658033E+01
          0                 2           2             4    7     1       0.6559418673E-02       4    7    1         0.3534570772E+00      0.8869602407E+00
          0                 3           2             4    7     1      -0.4466729429E-03       4    7    1        -0.2474206115E-01      0.6208723516E-01
          0                 4           1             4    7     1       0.1777353042E-04       4    7    1         0.1011951435E-02      0.2539369284E-02

    ------------------------------------------------
       NWT REQUIRED            4 OUTER ITERATIONS 
       AND A TOTAL OF          7 INNER ITERATIONS.
    ------------------------------------------------

 NO OUTPUT CONTROL FOR STRESS PERIOD   45   TIME STEP   27
 
 SOLVING FOR HEAD 
                                                   Max.-Head-Change                         Max.-Flux-Residual
  Residual-Control   Outer-Iter.   Inner-Iter.     Column Row Layer    Maximum-Head-Change  Column Row Layer    Maximum-Flux-Residual          L2-NORM 
          0                 1           2             4    7     1      -0.6684893869E-01       4    7    1        -0.3503619095E+01      0.8830363670E+01
          0                 2           2             4    7     1       0.6502493995E-02       4    7    1         0.3503562223E+00      0.8830309348E+00
          0                 3           2             4    7     1      -0.4427965645E-03       4    7    1        -0.2452499996E-01      0.6181218571E-01
          0                 4           1             4    7     1       0.1761928649E-04       4    7    1         0.1003073645E-02      0.2528120085E-02

    ------------------------------------------------
       NWT REQUIRED            4 OUTER ITERATIONS 
       AND A TOTAL OF          7 INNER ITERATIONS.
    ------------------------------------------------

 NO OUTPUT CONTROL FOR STRESS PERIOD   45   TIME STEP   28
 
 SOLVING FOR HEAD 
                                                   Max.-Head-Change                         Max.-Flux-Residual
  Residual-Control   Outer-Iter.   Inner-Iter.     Column Row Layer    Maximum-Head-Change  Column Row Layer    Maximum-Flux-Residual          L2-NORM 
          0                 1           2             4    7     1      -0.6627479500E-01       4    7    1        -0.3473202683E+01      0.8791707852E+01
          0                 2           2             4    7     1       0.6446647358E-02       4    7    1         0.3473147089E+00      0.8791654766E+00
          0                 3           2             4    7     1      -0.4389935968E-03       4    7    1        -0.2431209271E-01      0.6154160544E-01
          0                 4           1             4    7     1       0.1746796243E-04       4    7    1         0.9943657217E-03      0.2517050248E-02

    ------------------------------------------------
       NWT REQUIRED            4 OUTER ITERATIONS 
       AND A TOTAL OF          7 INNER ITERATIONS.
    ------------------------------------------------

 NO OUTPUT CONTROL FOR STRESS PERIOD   45   TIME STEP   29
 
 SOLVING FOR HEAD 
                                                   Max.-Head-Change                         Max.-Flux-Residual
  Residual-Control   Outer-Iter.   Inner-Iter.     Column Row Layer    Maximum-Head-Change  Column Row Layer    Maximum-Flux-Residual          L2-NORM 
          0                 1           2             4    7     1      -0.6571164617E-01       4    7    1        -0.3443375290E+01      0.8753675254E+01
          0                 2           2             4    7     1       0.6391870162E-02       4    7    1         0.3443320933E+00      0.8753623315E+00
          0                 3           2             4    7     1      -0.4352634552E-03       4    7    1        -0.2410330838E-01      0.6127538615E-01
          0                 4           1             4    7     1       0.1731953670E-04       4    7    1         0.9858264364E-03      0.2506163538E-02

    ------------------------------------------------
       NWT REQUIRED            4 OUTER ITERATIONS 
       AND A TOTAL OF          7 INNER ITERATIONS.
    ------------------------------------------------

 NO OUTPUT CONTROL FOR STRESS PERIOD   45   TIME STEP   30



 STREAM LISTING     PERIOD     45   STEP       30

 LAYER ROW COL. STREAM  RCH.  FLOW INTO     FLOW TO   FLOW OUT OF   OVRLND.     DIRECT     STREAM       STREAM     STREAM     STREAM   STREAMBED  STREAMBED
                SEG.NO.  NO.  STRM. RCH.    AQUIFER    STRM. RCH.    RUNOFF     PRECIP       ET          HEAD       DEPTH      WIDTH   CONDCTNC.   GRADIENT

   1    1    1     1     1    1.3875E+01  1.7894E-01   1.3696E+01  0.000E+00  0.000E+00  0.000E+00  1.09404E+03  9.876E-01  9.972E+00  4.487E-02  1.329E+00
   1    2    2     1     2    1.3696E+01  2.7573E-01   1.3420E+01  0.000E+00  0.000E+00  0.000E+00  1.08904E+03  9.829E-01  9.890E+00  6.923E-02  1.328E+00
   1    3    3     1     3    1.3420E+01  2.3380E-01   1.3186E+01  0.000E+00  0.000E+00  0.000E+00  1.08340E+03  9.775E-01  9.797E+00  5.878E-02  1.326E+00
   1    3    4     1     4    1.3186E+01  2.1419E-01   1.2972E+01  0.000E+00  0.000E+00  0.000E+00  1.07838E+03  9.727E-01  9.714E+00  5.391E-02  1.324E+00
   1    4    5     2     1    1.0972E+01  2.9101E-01   1.0681E+01  0.000E+00  0.000E+00  0.000E+00  1.07266E+03  7.309E-01  1.200E+01  7.800E-02  1.244E+00
   1    5    6     2     2    1.0681E+01  2.2322E-01   1.0458E+01  0.000E+00  0.000E+00  0.000E+00  1.06723E+03  7.204E-01  1.200E+01  6.000E-02  1.240E+00
   1    6    6     2     3    1.0458E+01  2.2267E-01   1.0235E+01  0.000E+00  0.000E+00  0.000E+00  1.06250E+03  7.112E-01  1.200E+01  6.000E-02  1.237E+00
   1    7    6     2     4    1.0235E+01  2.2212E-01   1.0013E+01  0.000E+00  0.000E+00  0.000E+00  1.05778E+03  7.020E-01  1.200E+01  6.000E-02  1.234E+00
   1    8    6     2     5    1.0013E+01  2.2157E-01   9.7913E+00  0.000E+00  0.000E+00  0.000E+00  1.05305E+03  6.928E-01  1.200E+01  6.000E-02  1.231E+00
   1    3    5     3     1    2.0000E+00  2.8252E-01   1.7175E+00  0.000E+00  0.000E+00  0.000E+00  1.07555E+03  1.909E+00  9.636E+00  7.227E-02  1.955E+00
   1    3    6     3     2    1.7175E+00  2.4905E-01   1.4684E+00  0.000E+00  0.000E+00  0.000E+00  1.07264E+03  1.727E+00  8.909E+00  6.682E-02  1.864E+00
   1    3    7     3     3    1.4684E+00  1.9718E-01   1.2712E+00  0.000E+00  0.000E+00  0.000E+00  1.06987E+03  1.555E+00  8.218E+00  5.547E-02  1.777E+00
   1    4    8     3     4    1.2712E+00  2.2567E-01   1.0456E+00  0.000E+00  0.000E+00  0.000E+00  1.06682E+03  1.364E+00  7.455E+00  6.709E-02  1.682E+00
   1    5    8     3     5    1.0456E+00  1.5790E-01   8.8768E-01  0.000E+00  0.000E+00  0.000E+00  1.06362E+03  1.164E+00  6.655E+00  4.991E-02  1.582E+00
   1    6    8     3     6    8.8768E-01  5.5980E-02   8.3170E-01  0.000E+00  0.000E+00  0.000E+00  1.06158E+03  1.036E+00  6.145E+00  1.844E-02  1.518E+00
   1    5   10     4     1    1.0000E+01  9.0919E-02   9.9091E+00  0.000E+00  0.000E+00  0.000E+00  1.07836E+03  6.368E-01  1.000E+01  2.500E-02  1.212E+00
   1    5    9     4     2    9.9091E+00  1.8158E-01   9.7275E+00  0.000E+00  0.000E+00  0.000E+00  1.07154E+03  6.315E-01  1.000E+01  5.000E-02  1.211E+00
   1    6    8     4     3    9.7275E+00  1.2689E-01   9.6006E+00  0.000E+00  0.000E+00  0.000E+00  1.06381E+03  6.256E-01  1.000E+01  3.500E-02  1.209E+00
   1    6    8     5     1    1.0432E+01  2.2686E-01   1.0205E+01  0.000E+00  0.000E+00  0.000E+00  1.05868E+03  6.790E-01  1.542E+01  6.166E-02  1.226E+00
   1    7    7     5     2    1.0205E+01  2.7894E-01   9.9265E+00  0.000E+00  0.000E+00  0.000E+00  1.05417E+03  6.732E-01  1.519E+01  7.594E-02  1.224E+00
   1    8    7     5     3    9.9265E+00  1.9221E-01   9.7343E+00  0.000E+00  0.000E+00  0.000E+00  1.04992E+03  6.676E-01  1.497E+01  5.241E-02  1.223E+00
   1    8    6     5     4    9.7343E+00  1.3577E-01   9.5985E+00  0.000E+00  0.000E+00  0.000E+00  1.04691E+03  6.637E-01  1.482E+01  3.706E-02  1.221E+00
   1    9    6     6     1    1.9390E+01  2.4267E-01   1.9147E+01  0.000E+00  0.000E+00  0.000E+00  1.04377E+03  1.044E+00  1.200E+01  6.000E-02  1.348E+00
   1   10    7     6     2    1.9147E+01  2.4219E-01   1.8905E+01  0.000E+00  0.000E+00  0.000E+00  1.03922E+03  1.037E+00  1.200E+01  6.000E-02  1.346E+00
   1   11    7     6     3    1.8905E+01  2.4172E-01   1.8663E+01  0.000E+00  0.000E+00  0.000E+00  1.03466E+03  1.029E+00  1.200E+01  6.000E-02  1.343E+00
   1   12    7     6     4    1.8663E+01  2.4124E-01   1.8422E+01  0.000E+00  0.000E+00  0.000E+00  1.03011E+03  1.021E+00  1.200E+01  6.000E-02  1.340E+00
   1   13    7     6     5    1.8422E+01  1.4122E-02   1.8408E+01  0.000E+00  0.000E+00  0.000E+00  1.02693E+03  1.016E+00  1.200E+01  2.400E-02  1.961E-01
   1   14    9     7     1    1.5000E+02  1.4121E+00   1.4859E+02  0.000E+00  0.000E+00  0.000E+00  1.03987E+03  2.288E+00  5.529E+01  5.593E-01  8.416E-01
   1   13    8     7     2    1.4859E+02  2.0764E+00   1.4651E+02  0.000E+00  0.000E+00  0.000E+00  1.03478E+03  2.278E+00  5.525E+01  6.147E-01  1.126E+00
   1   13    7     7     3    1.4651E+02  1.8703E+00   1.4464E+02  0.000E+00  0.000E+00  0.000E+00  1.02969E+03  2.268E+00  5.520E+01  5.583E-01  1.117E+00
   1   13    6     8     1    1.6305E+02  1.2605E+00   1.6179E+02  0.000E+00  0.000E+00  0.000E+00  1.02478E+03  2.902E+00  4.208E+01  4.288E-01  9.798E-01
   1   13    5     8     2    1.6179E+02  4.8650E-01   1.6130E+02  0.000E+00  0.000E+00  0.000E+00  1.01852E+03  2.896E+00  4.200E+01  4.280E-01  3.789E-01
   1   13    4     8     3    1.6130E+02 -1.3924E+00   1.6269E+02  0.000E+00  0.000E+00  0.000E+00  1.01227E+03  2.899E+00  4.204E+01  4.284E+00 -1.083E-01
   1   13    3     8     4    1.6269E+02 -3.1363E+00   1.6583E+02  0.000E+00  0.000E+00  0.000E+00  1.00604E+03  2.914E+00  4.226E+01  4.306E+00 -2.428E-01
   1   13    2     8     5    1.6583E+02 -2.4582E+00   1.6829E+02  0.000E+00  0.000E+00  0.000E+00  9.99808E+02  2.933E+00  4.253E+01  4.334E+00 -1.891E-01
   1   13    1     8     6    1.6829E+02 -1.9646E+00   1.7025E+02  0.000E+00  0.000E+00  0.000E+00  9.94822E+02  2.947E+00  4.274E+01  2.613E+00 -2.506E-01
   1    8    6     9     1    0.0000E+00  0.0000E+00   0.0000E+00  0.000E+00  0.000E+00  0.000E+00  1.07875E+03  0.000E+00  4.000E+00  0.000E+00  1.000E+00
   1    8    5     9     2    0.0000E+00  0.0000E+00   0.0000E+00  0.000E+00  0.000E+00  0.000E+00  1.07825E+03  0.000E+00  4.000E+00  0.000E+00  1.000E+00





UNSATURATED ZONE PACKAGE VOLUMETRIC BUDGET FOR  TIME STEP    30 STRESS PERIOD   45
  ------------------------------------------------------------------------------



     CUMULATIVE VOLUMES      L**3       RATES FOR THIS TIME STEP      L**3/T
     ------------------                 ------------------------

           IN:                                      IN:
           ---                                      ---
        INFILTRATION =  1666520603.5085          INFILTRATION =          49.5675

          OUT:                                     OUT:
          ----                                     ----
              UZF ET =  1665695038.5353                UZF ET =          49.5675
        UZF RECHARGE =       73224.0000          UZF RECHARGE =       0.0000E+00

            IN - OUT =      752340.9732              IN - OUT =       0.0000E+00

          STORAGE:                                 STORAGE:
          --------                                 --------
      STORAGE CHANGE =      752341.1305        STORAGE CHANGE =      -1.8259E-15

 PERCENT DISCREPANCY IS DIFFERENCE BETWEEN IN-OUT MINUS CHANGE IN STORAGE
 DIVIDED BY THE AVERAGE OF IN AND OUT TIMES 100

 PERCENT DISCREPANCY =           0.00     PERCENT DISCREPANCY =           0.00






1
  VOLUMETRIC BUDGET FOR AGRICULTURAL FIELDS AT  END OF TIME STEP   30, STRESS PERIOD  45
  ------------------------------------------------------------------------------

     CUMULATIVE VOLUMES      L**3       RATES FOR THIS TIME STEP      L**3/T
     ------------------                 ------------------------

           IN:                                      IN:
           ---                                      ---
               AG WELLS  =  1568371584.0000                 AG WELLS  =          48.7200
      DIVERSION SEGMENTS =           0.0000        DIVERSION SEGMENTS =           0.0000
       IRRIGATION PONDS  =           0.0000         IRRIGATION PONDS  =           0.0000
           GW IRRIGATION =           0.0000             GW IRRIGATION =           0.0000
           SW IRRIGATION =           0.0000             SW IRRIGATION =           0.0000
        SYSTEM LOSSES GW =           0.0000          SYSTEM LOSSES GW =           0.0000
        SYSTEM LOSSES SW =           0.0000          SYSTEM LOSSES SW =           0.0000

                TOTAL IN =  1568371584.0000                  TOTAL IN =          48.7200

          OUT:                                     OUT:
          ----                                     ----
               AG WELLS  =           0.0000                 AG WELLS  =           0.0000
      DIVERSION SEGMENTS =           0.0000        DIVERSION SEGMENTS =           0.0000
       IRRIGATION PONDS  =           0.0000         IRRIGATION PONDS  =           0.0000
           GW IRRIGATION =  1568371584.0000             GW IRRIGATION =          48.7200
           SW IRRIGATION =           0.0000             SW IRRIGATION =           0.0000
        SYSTEM LOSSES GW =           0.0000          SYSTEM LOSSES GW =           0.0000
        SYSTEM LOSSES SW =           0.0000          SYSTEM LOSSES SW =           0.0000

               TOTAL OUT =  1568371584.0000                 TOTAL OUT =          48.7200

                IN - OUT =           0.0000                  IN - OUT =           0.0000

     PERCENT DISCREPANCY =           0.00         PERCENT DISCREPANCY =           0.00



1
  VOLUMETRIC BUDGET FOR ENTIRE MODEL AT END OF TIME STEP   30, STRESS PERIOD  45
  ------------------------------------------------------------------------------

     CUMULATIVE VOLUMES      L**3       RATES FOR THIS TIME STEP      L**3/T
     ------------------                 ------------------------

           IN:                                      IN:
           ---                                      ---
             STORAGE     =  1986754944.0000               STORAGE     =          45.1365
       CONSTANT HEAD     =           0.0000         CONSTANT HEAD     =           0.0000
     HEAD DEP BOUNDS     =    33452330.0000       HEAD DEP BOUNDS     =           0.2909
      STREAM LEAKAGE     =  1410661248.0000        STREAM LEAKAGE     =          12.5725
        UZF RECHARGE     =       73223.9531          UZF RECHARGE     =           0.0000
               GW ET     =           0.0000                 GW ET     =           0.0000
     SURFACE LEAKAGE     =           0.0000       SURFACE LEAKAGE     =           0.0000
           AG WELLS      =           0.0000             AG WELLS      =           0.0000

                TOTAL IN =  3430941696.0000                  TOTAL IN =          57.9999

          OUT:                                     OUT:
          ----                                     ----
             STORAGE     =   713952704.0000               STORAGE     =       4.0827E-02
       CONSTANT HEAD     =           0.0000         CONSTANT HEAD     =           0.0000
     HEAD DEP BOUNDS     =    33442424.0000       HEAD DEP BOUNDS     =           0.2878
      STREAM LEAKAGE     =  1115186944.0000        STREAM LEAKAGE     =           8.9514
        UZF RECHARGE     =           0.0000          UZF RECHARGE     =           0.0000
               GW ET     =           0.0000                 GW ET     =           0.0000
     SURFACE LEAKAGE     =           0.0000       SURFACE LEAKAGE     =           0.0000
           AG WELLS      =  1568371584.0000             AG WELLS      =          48.7200

               TOTAL OUT =  3430953472.0000                 TOTAL OUT =          58.0001

                IN - OUT =      -11776.0000                  IN - OUT =      -1.6403E-04

     PERCENT DISCREPANCY =          -0.00         PERCENT DISCREPANCY =          -0.00






         TIME SUMMARY AT END OF TIME STEP   30 IN STRESS PERIOD   45
                    SECONDS     MINUTES      HOURS       DAYS        YEARS
                    -----------------------------------------------------------
   TIME STEP LENGTH  87667.      1461.1      24.352      1.0147     2.77799E-03
 STRESS PERIOD TIME 2.63000E+06  43833.      730.56      30.440     8.33397E-02
         TOTAL TIME 1.15805E+08 1.93009E+06  32168.      1340.3      3.6696    
1
1
                            STRESS PERIOD NO.   46, LENGTH =   2630000.    
                            -----------------------------------------------

                              NUMBER OF TIME STEPS =    30

                               MULTIPLIER FOR DELT =     1.000

                            INITIAL TIME STEP SIZE =   87666.66    

 REUSING NON-PARAMETER GHB CELLS FROM LAST STRESS PERIOD

      2 GHB CELLS

 REUSING STREAM SEGMENT DATA FROM LAST STRESS PERIOD



            AREAL INFILTRATION RATE
 READING ON UNIT   19 WITH FORMAT: (FREE)              

            1           2           3           4           5           6           7           8           9          10
 ........................................................................................................................
   1   1.0000E-10  2.0000E-10   0.000       0.000       0.000       0.000       0.000       0.000       0.000       0.000    
   2   2.0000E-10  1.0000E-10  2.0000E-10   0.000       0.000      8.0000E-10  8.0000E-10  5.0000E-10   0.000       0.000    
   3    0.000      5.0000E-10  1.0000E-10  1.0000E-10  8.0000E-10  8.0000E-10  5.0000E-10  5.0000E-10   0.000       0.000    
   4   8.0000E-10  5.0000E-10  1.0000E-10  1.0000E-10  1.0000E-10  1.0000E-10  1.0000E-10  1.0000E-10  2.0000E-10   0.000    
   5   8.0000E-10  5.0000E-10  1.0000E-10  1.0000E-10  1.0000E-10  1.0000E-10  1.0000E-10  1.0000E-10  1.0000E-10  1.0000E-10
   6   8.0000E-10  5.0000E-10  5.0000E-10  2.0000E-10  2.0000E-10  1.0000E-10  1.0000E-10  1.0000E-10  1.0000E-10  5.0000E-10
   7   8.0000E-10  5.0000E-10  5.0000E-10  2.0000E-10  2.0000E-10  1.0000E-10  1.0000E-10  2.0000E-10  2.0000E-10   0.000    
   8    0.000      5.0000E-10  5.0000E-10  2.0000E-10  2.0000E-10  1.0000E-10  1.0000E-10  2.0000E-10  5.0000E-10   0.000    
   9    0.000      5.0000E-10  5.0000E-10  2.0000E-10  2.0000E-10  1.0000E-10  1.0000E-10  2.0000E-10  5.0000E-10   0.000    
  10    0.000      5.0000E-10  5.0000E-10  2.0000E-10  2.0000E-10  1.0000E-10  1.0000E-10  2.0000E-10  5.0000E-10  8.0000E-10
  11    0.000      1.0000E-10  1.0000E-10  1.0000E-10  1.0000E-10  1.0000E-10  1.0000E-10  2.0000E-10  5.0000E-10   0.000    
  12   1.0000E-10  1.0000E-10  1.0000E-10  1.0000E-10  1.0000E-10  1.0000E-10  1.0000E-10  1.0000E-10  2.0000E-10   0.000    
  13   1.0000E-10  1.0000E-10  2.0000E-10  2.0000E-10  2.0000E-10  2.0000E-10  2.0000E-10  1.0000E-10  1.0000E-10   0.000    
  14    0.000      2.0000E-10  5.0000E-10  5.0000E-10  5.0000E-10  5.0000E-10  5.0000E-10  2.0000E-10  1.0000E-10   0.000    
  15    0.000       0.000      8.0000E-10  8.0000E-10  8.0000E-10  8.0000E-10   0.000       0.000       0.000       0.000    

                  ET RATE =  7.500000E-08

 USING ET EXTINCTION DEPTH FROM PREVIOUS STRESS PERIOD. CURRENT PERIOD IS:      46

 USING EXTINCTION WATER CONTENT FROM PREVIOUS STRESS PERIOD. CURRENT PERIOD IS:      46

 USING AIR ENTRY PRESSURE FROM PREVIOUS STRESS PERIOD. CURRENT PERIOD IS:      46

 USING ROOT PRESSURE HEAD FROM PREVIOUS STRESS PERIOD. CURRENT PERIOD IS:      46

 USING ROOT ACTIVITY FROM PREVIOUS STRESS PERIOD. CURRENT PERIOD IS:      46

 PROCESSING AG STRESS PERIOD DATA

 READING AG STRESS PERIOD DATA

 READING IRRIGATION SEGMENT

 READING IRRIGATION WELL

 READING SUPPLEMENTAL WELL

 NO IRRPOND OR REUSING IRRPOND DATA FROM LAST STRESS PERIOD

 END PROCESSING AG STRESS PERIOD DATA OPTIONS
 
 SOLVING FOR HEAD 
                                                   Max.-Head-Change                         Max.-Flux-Residual
  Residual-Control   Outer-Iter.   Inner-Iter.     Column Row Layer    Maximum-Head-Change  Column Row Layer    Maximum-Flux-Residual          L2-NORM 
          0                 1           2             5    8     1       0.7096595642E-01       5    8    1         0.3860506461E+01      0.1000263081E+02
          0                 2           2             5    8     1      -0.6902950936E-02       5    8    1        -0.3860435625E+00      0.1000240898E+01
          0                 3           2             5    8     1       0.4700664027E-03       5    8    1         0.2702313033E-01      0.7001706992E-01
          0                 4           1             5    8     1      -0.1870437771E-04       5    8    1        -0.1105247263E-02      0.2863699333E-02

    ------------------------------------------------
       NWT REQUIRED            4 OUTER ITERATIONS 
       AND A TOTAL OF          7 INNER ITERATIONS.
    ------------------------------------------------

 NO OUTPUT CONTROL FOR STRESS PERIOD   46   TIME STEP    1
 
 SOLVING FOR HEAD 
                                                   Max.-Head-Change                         Max.-Flux-Residual
  Residual-Control   Outer-Iter.   Inner-Iter.     Column Row Layer    Maximum-Head-Change  Column Row Layer    Maximum-Flux-Residual          L2-NORM 
          0                 1           2             5    8     1       0.6784490122E-01       5    8    1         0.3687699860E+01      0.9684598930E+01
          0                 2           2             5    8     1      -0.6599364476E-02       5    8    1        -0.3687633946E+00      0.9684398979E+00
          0                 3           2             5    8     1       0.4493932205E-03       5    8    1         0.2581351339E-01      0.6779097654E-01
          0                 4           1             5    8     1      -0.1788177258E-04       5    8    1        -0.1055773860E-02      0.2772647469E-02

    ------------------------------------------------
       NWT REQUIRED            4 OUTER ITERATIONS 
       AND A TOTAL OF          7 INNER ITERATIONS.
    ------------------------------------------------

 NO OUTPUT CONTROL FOR STRESS PERIOD   46   TIME STEP    2
 
 SOLVING FOR HEAD 
                                                   Max.-Head-Change                         Max.-Flux-Residual
  Residual-Control   Outer-Iter.   Inner-Iter.     Column Row Layer    Maximum-Head-Change  Column Row Layer    Maximum-Flux-Residual          L2-NORM 
          0                 1           2             5    8     1       0.6491108687E-01       5    8    1         0.3525513230E+01      0.9394410538E+01
          0                 2           2             5    8     1      -0.6313990335E-02       5    8    1        -0.3525451468E+00      0.9394150119E+00
          0                 3           2             5    8     1       0.4299602410E-03       5    8    1         0.2467823163E-01      0.6575849882E-01
          0                 4           1             5    8     1      -0.1710851667E-04       5    8    1        -0.1009340807E-02      0.2689479216E-02

    ------------------------------------------------
       NWT REQUIRED            4 OUTER ITERATIONS 
       AND A TOTAL OF          7 INNER ITERATIONS.
    ------------------------------------------------

 NO OUTPUT CONTROL FOR STRESS PERIOD   46   TIME STEP    3
 
 SOLVING FOR HEAD 
                                                   Max.-Head-Change                         Max.-Flux-Residual
  Residual-Control   Outer-Iter.   Inner-Iter.     Column Row Layer    Maximum-Head-Change  Column Row Layer    Maximum-Flux-Residual          L2-NORM 
          0                 1           2             5    8     1       0.6215294311E-01       5    8    1         0.3373065707E+01      0.9113044184E+01
          0                 2           2             5    8     1      -0.6045704097E-02       5    8    1        -0.3373008060E+00      0.9112770465E+00
          0                 3           2             5    8     1       0.4116908846E-03       5    8    1         0.2361112340E-01      0.6378854270E-01
          0                 4           1             5    8     1      -0.1638156209E-04       5    8    1        -0.9656960385E-03      0.2608889875E-02

    ------------------------------------------------
       NWT REQUIRED            4 OUTER ITERATIONS 
       AND A TOTAL OF          7 INNER ITERATIONS.
    ------------------------------------------------

 NO OUTPUT CONTROL FOR STRESS PERIOD   46   TIME STEP    4
 
 SOLVING FOR HEAD 
                                                   Max.-Head-Change                         Max.-Flux-Residual
  Residual-Control   Outer-Iter.   Inner-Iter.     Column Row Layer    Maximum-Head-Change  Column Row Layer    Maximum-Flux-Residual          L2-NORM 
          0                 1           2             5    8     1       0.5955869892E-01       5    8    1         0.3229741901E+01      0.8842626340E+01
          0                 2           2             5    8     1      -0.5793360548E-02       5    8    1        -0.3229688180E+00      0.8842379881E+00
          0                 3           2             5    8     1       0.3945071694E-03       5    8    1         0.2260788012E-01      0.6189586451E-01
          0                 4           1             5    8     1      -0.1569780615E-04       5    8    1        -0.9246633508E-03      0.2531494700E-02

    ------------------------------------------------
       NWT REQUIRED            4 OUTER ITERATIONS 
       AND A TOTAL OF          7 INNER ITERATIONS.
    ------------------------------------------------

 NO OUTPUT CONTROL FOR STRESS PERIOD   46   TIME STEP    5
 
 SOLVING FOR HEAD 
                                                   Max.-Head-Change                         Max.-Flux-Residual
  Residual-Control   Outer-Iter.   Inner-Iter.     Column Row Layer    Maximum-Head-Change  Column Row Layer    Maximum-Flux-Residual          L2-NORM 
          0                 1           2             5    7     1       0.5715189648E-01       5    8    1         0.3094931517E+01      0.8586017738E+01
          0                 2           2             5    7     1      -0.5559280909E-02       5    8    1        -0.3094881434E+00      0.8585797725E+00
          0                 3           2             5    7     1       0.3785668563E-03       5    8    1         0.2166422905E-01      0.6010000257E-01
          0                 4           1             5    7     1      -0.1506352906E-04       5    8    1        -0.8860679686E-03      0.2458061907E-02

    ------------------------------------------------
       NWT REQUIRED            4 OUTER ITERATIONS 
       AND A TOTAL OF          7 INNER ITERATIONS.
    ------------------------------------------------

 NO OUTPUT CONTROL FOR STRESS PERIOD   46   TIME STEP    6
 
 SOLVING FOR HEAD 
                                                   Max.-Head-Change                         Max.-Flux-Residual
  Residual-Control   Outer-Iter.   Inner-Iter.     Column Row Layer    Maximum-Head-Change  Column Row Layer    Maximum-Flux-Residual          L2-NORM 
          0                 1           2             5    7     1       0.5589984705E-01       5    7    1         0.2970148826E+01      0.8342265894E+01
          0                 2           2             5    7     1      -0.5437497013E-02       5    7    1        -0.2970125873E+00      0.8342067179E+00
          0                 3           2             5    7     1       0.3702737620E-03       5    7    1         0.2079091406E-01      0.5839386452E-01
          0                 4           1             5    7     1      -0.1473353939E-04       5    7    1        -0.8503494616E-03      0.2388258530E-02

    ------------------------------------------------
       NWT REQUIRED            4 OUTER ITERATIONS 
       AND A TOTAL OF          7 INNER ITERATIONS.
    ------------------------------------------------

 NO OUTPUT CONTROL FOR STRESS PERIOD   46   TIME STEP    7
 
 SOLVING FOR HEAD 
                                                   Max.-Head-Change                         Max.-Flux-Residual
  Residual-Control   Outer-Iter.   Inner-Iter.     Column Row Layer    Maximum-Head-Change  Column Row Layer    Maximum-Flux-Residual          L2-NORM 
          0                 1           2             5    7     1       0.5467180988E-01       5    7    1         0.2905086222E+01      0.8110487331E+01
          0                 2           2             5    7     1      -0.5318048059E-02       5    7    1        -0.2905067036E+00      0.8110308588E+00
          0                 3           2             5    7     1       0.3621396764E-03       5    7    1         0.2033549845E-01      0.5677160068E-01
          0                 4           1             5    7     1      -0.1440987656E-04       5    7    1        -0.8317229460E-03      0.2321898501E-02

    ------------------------------------------------
       NWT REQUIRED            4 OUTER ITERATIONS 
       AND A TOTAL OF          7 INNER ITERATIONS.
    ------------------------------------------------

 NO OUTPUT CONTROL FOR STRESS PERIOD   46   TIME STEP    8
 
 SOLVING FOR HEAD 
                                                   Max.-Head-Change                         Max.-Flux-Residual
  Residual-Control   Outer-Iter.   Inner-Iter.     Column Row Layer    Maximum-Head-Change  Column Row Layer    Maximum-Flux-Residual          L2-NORM 
          0                 1           2             5    7     1       0.5346829355E-01       5    7    1         0.2841260568E+01      0.7889862197E+01
          0                 2           2             5    7     1      -0.5200983618E-02       5    7    1        -0.2841244676E+00      0.7889701449E+00
          0                 3           2             5    7     1       0.3541679746E-03       5    7    1         0.1988873863E-01      0.5522741034E-01
          0                 4           1             5    7     1      -0.1409267562E-04       5    7    1        -0.8134504640E-03      0.2258752284E-02

    ------------------------------------------------
       NWT REQUIRED            4 OUTER ITERATIONS 
       AND A TOTAL OF          7 INNER ITERATIONS.
    ------------------------------------------------

 NO OUTPUT CONTROL FOR STRESS PERIOD   46   TIME STEP    9
 
 SOLVING FOR HEAD 
                                                   Max.-Head-Change                         Max.-Flux-Residual
  Residual-Control   Outer-Iter.   Inner-Iter.     Column Row Layer    Maximum-Head-Change  Column Row Layer    Maximum-Flux-Residual          L2-NORM 
          0                 1           2             4    7     1       0.5235227804E-01       5    7    1         0.2778722420E+01      0.7679657071E+01
          0                 2           2             4    7     1      -0.5092444247E-02       5    7    1        -0.2778709409E+00      0.7679514134E+00
          0                 3           2             4    7     1       0.3467766651E-03       5    7    1         0.1945098883E-01      0.5375630299E-01
          0                 4           1             4    7     1      -0.1379856731E-04       5    7    1        -0.7955464744E-03      0.2198593673E-02

    ------------------------------------------------
       NWT REQUIRED            4 OUTER ITERATIONS 
       AND A TOTAL OF          7 INNER ITERATIONS.
    ------------------------------------------------

 NO OUTPUT CONTROL FOR STRESS PERIOD   46   TIME STEP   10
 
 SOLVING FOR HEAD 
                                                   Max.-Head-Change                         Max.-Flux-Residual
  Residual-Control   Outer-Iter.   Inner-Iter.     Column Row Layer    Maximum-Head-Change  Column Row Layer    Maximum-Flux-Residual          L2-NORM 
          0                 1           2             4    7     1       0.5192218543E-01       4    7    1         0.2720014630E+01      0.7479171060E+01
          0                 2           2             4    7     1      -0.5050612198E-02       4    7    1        -0.2720014434E+00      0.7478981891E+00
          0                 3           2             4    7     1       0.3439280162E-03       4    7    1         0.1904011171E-01      0.5235247646E-01
          0                 4           1             4    7     1      -0.1368521682E-04       4    7    1        -0.7787416325E-03      0.2141157681E-02

    ------------------------------------------------
       NWT REQUIRED            4 OUTER ITERATIONS 
       AND A TOTAL OF          7 INNER ITERATIONS.
    ------------------------------------------------

 NO OUTPUT CONTROL FOR STRESS PERIOD   46   TIME STEP   11
 
 SOLVING FOR HEAD 
                                                   Max.-Head-Change                         Max.-Flux-Residual
  Residual-Control   Outer-Iter.   Inner-Iter.     Column Row Layer    Maximum-Head-Change  Column Row Layer    Maximum-Flux-Residual          L2-NORM 
          0                 1           2             4    7     1       0.5146679014E-01       4    7    1         0.2697679195E+01      0.7287784967E+01
          0                 2           2             4    7     1      -0.5006318423E-02       4    7    1        -0.2697681492E+00      0.7287667823E+00
          0                 3           2             4    7     1       0.3409117376E-03       4    7    1         0.1888377868E-01      0.5101333054E-01
          0                 4           1             4    7     1      -0.1356519687E-04       4    7    1        -0.7723476303E-03      0.2086426686E-02

    ------------------------------------------------
       NWT REQUIRED            4 OUTER ITERATIONS 
       AND A TOTAL OF          7 INNER ITERATIONS.
    ------------------------------------------------

 NO OUTPUT CONTROL FOR STRESS PERIOD   46   TIME STEP   12
 
 SOLVING FOR HEAD 
                                                   Max.-Head-Change                         Max.-Flux-Residual
  Residual-Control   Outer-Iter.   Inner-Iter.     Column Row Layer    Maximum-Head-Change  Column Row Layer    Maximum-Flux-Residual          L2-NORM 
          0                 1           2             4    7     1       0.5098822668E-01       4    7    1         0.2674010330E+01      0.7104933690E+01
          0                 2           2             4    7     1      -0.4959770591E-02       4    7    1        -0.2674014839E+00      0.7104827970E+00
          0                 3           2             4    7     1       0.3377419702E-03       4    7    1         0.1871810996E-01      0.4973346034E-01
          0                 4           1             4    7     1      -0.1343906894E-04       4    7    1        -0.7655717741E-03      0.2034084459E-02

    ------------------------------------------------
       NWT REQUIRED            4 OUTER ITERATIONS 
       AND A TOTAL OF          7 INNER ITERATIONS.
    ------------------------------------------------

 NO OUTPUT CONTROL FOR STRESS PERIOD   46   TIME STEP   13
 
 SOLVING FOR HEAD 
                                                   Max.-Head-Change                         Max.-Flux-Residual
  Residual-Control   Outer-Iter.   Inner-Iter.     Column Row Layer    Maximum-Head-Change  Column Row Layer    Maximum-Flux-Residual          L2-NORM 
          0                 1           2             4    7     1       0.5048915119E-01       4    7    1         0.2649154560E+01      0.6930047981E+01
          0                 2           2             4    7     1      -0.4911227114E-02       4    7    1        -0.2649161024E+00      0.6929952834E+00
          0                 3           2             4    7     1       0.3344363098E-03       4    7    1         0.1854413131E-01      0.4850937294E-01
          0                 4           1             4    7     1      -0.1330753347E-04       4    7    1        -0.7584560294E-03      0.1984004077E-02

    ------------------------------------------------
       NWT REQUIRED            4 OUTER ITERATIONS 
       AND A TOTAL OF          7 INNER ITERATIONS.
    ------------------------------------------------

 NO OUTPUT CONTROL FOR STRESS PERIOD   46   TIME STEP   14
 
 SOLVING FOR HEAD 
                                                   Max.-Head-Change                         Max.-Flux-Residual
  Residual-Control   Outer-Iter.   Inner-Iter.     Column Row Layer    Maximum-Head-Change  Column Row Layer    Maximum-Flux-Residual          L2-NORM 
          0                 1           2             4    7     1       0.4997153251E-01       4    7    1         0.2623220915E+01      0.6762637659E+01
          0                 2           2             4    7     1      -0.4860879539E-02       4    7    1        -0.2623229101E+00      0.6762551810E+00
          0                 3           2             4    7     1       0.3310078015E-03       4    7    1         0.1836260615E-01      0.4733758599E-01
          0                 4           1             4    7     1      -0.1317111015E-04       4    7    1        -0.7510316668E-03      0.1936145253E-02

    ------------------------------------------------
       NWT REQUIRED            4 OUTER ITERATIONS 
       AND A TOTAL OF          7 INNER ITERATIONS.
    ------------------------------------------------

 NO OUTPUT CONTROL FOR STRESS PERIOD   46   TIME STEP   15
 
 SOLVING FOR HEAD 
                                                   Max.-Head-Change                         Max.-Flux-Residual
  Residual-Control   Outer-Iter.   Inner-Iter.     Column Row Layer    Maximum-Head-Change  Column Row Layer    Maximum-Flux-Residual          L2-NORM 
          0                 1           2             4    7     1       0.4943746833E-01       4    7    1         0.2596325818E+01      0.6602238427E+01
          0                 2           2             4    7     1      -0.4808931946E-02       4    7    1        -0.2596335516E+00      0.6602160996E+00
          0                 3           2             4    7     1       0.3274703410E-03       4    7    1         0.1817434955E-01      0.4621488483E-01
          0                 4           1             4    7     1      -0.1303035180E-04       4    7    1        -0.7433319763E-03      0.1890165212E-02

    ------------------------------------------------
       NWT REQUIRED            4 OUTER ITERATIONS 
       AND A TOTAL OF          7 INNER ITERATIONS.
    ------------------------------------------------

 NO OUTPUT CONTROL FOR STRESS PERIOD   46   TIME STEP   16
 
 SOLVING FOR HEAD 
                                                   Max.-Head-Change                         Max.-Flux-Residual
  Residual-Control   Outer-Iter.   Inner-Iter.     Column Row Layer    Maximum-Head-Change  Column Row Layer    Maximum-Flux-Residual          L2-NORM 
          0                 1           2             4    7     1       0.4888891881E-01       4    7    1         0.2568578030E+01      0.6448425203E+01
          0                 2           2             4    7     1      -0.4755575038E-02       4    7    1        -0.2568589048E+00      0.6448355477E+00
          0                 3           2             4    7     1       0.3238369136E-03       4    7    1         0.1798012294E-01      0.4513825311E-01
          0                 4           1             4    7     1      -0.1288577410E-04       4    7    1        -0.7353880958E-03      0.1846137029E-02

    ------------------------------------------------
       NWT REQUIRED            4 OUTER ITERATIONS 
       AND A TOTAL OF          7 INNER ITERATIONS.
    ------------------------------------------------

 NO OUTPUT CONTROL FOR STRESS PERIOD   46   TIME STEP   17
 
 SOLVING FOR HEAD 
                                                   Max.-Head-Change                         Max.-Flux-Residual
  Residual-Control   Outer-Iter.   Inner-Iter.     Column Row Layer    Maximum-Head-Change  Column Row Layer    Maximum-Flux-Residual          L2-NORM 
          0                 1           2             4    7     1       0.4832784864E-01       4    7    1         0.2540086360E+01      0.6300809465E+01
          0                 2           2             4    7     1      -0.4700999951E-02       4    7    1        -0.2540098524E+00      0.6300746612E+00
          0                 3           2             4    7     1       0.3201205352E-03       4    7    1         0.1778068810E-01      0.4410502523E-01
          0                 4           1             4    7     1      -0.1273789592E-04       4    7    1        -0.7272311909E-03      0.1803873796E-02

    ------------------------------------------------
       NWT REQUIRED            4 OUTER ITERATIONS 
       AND A TOTAL OF          7 INNER ITERATIONS.
    ------------------------------------------------

 NO OUTPUT CONTROL FOR STRESS PERIOD   46   TIME STEP   18
 
 SOLVING FOR HEAD 
                                                   Max.-Head-Change                         Max.-Flux-Residual
  Residual-Control   Outer-Iter.   Inner-Iter.     Column Row Layer    Maximum-Head-Change  Column Row Layer    Maximum-Flux-Residual          L2-NORM 
          0                 1           2             4    7     1       0.4775556689E-01       4    7    1         0.2510923972E+01      0.6159014342E+01
          0                 2           2             4    7     1      -0.4645334045E-02       4    7    1        -0.2510937124E+00      0.6158957612E+00
          0                 3           2             4    7     1       0.3163298788E-03       4    7    1         0.1757655727E-01      0.4311251130E-01
          0                 4           1             4    7     1      -0.1258706230E-04       4    7    1        -0.7188822506E-03      0.1763294713E-02

    ------------------------------------------------
       NWT REQUIRED            4 OUTER ITERATIONS 
       AND A TOTAL OF          7 INNER ITERATIONS.
    ------------------------------------------------

 NO OUTPUT CONTROL FOR STRESS PERIOD   46   TIME STEP   19
 
 SOLVING FOR HEAD 
                                                   Max.-Head-Change                         Max.-Flux-Residual
  Residual-Control   Outer-Iter.   Inner-Iter.     Column Row Layer    Maximum-Head-Change  Column Row Layer    Maximum-Flux-Residual          L2-NORM 
          0                 1           2             4    7     1       0.4717407246E-01       4    7    1         0.2481201791E+01      0.6022723166E+01
          0                 2           2             4    7     1      -0.4588771785E-02       4    7    1        -0.2481215790E+00      0.6022671772E+00
          0                 3           2             4    7     1       0.3124781858E-03       4    7    1         0.1736850704E-01      0.4215852870E-01
          0                 4           1             4    7     1      -0.1243379995E-04       4    7    1        -0.7103729806E-03      0.1724280579E-02

    ------------------------------------------------
       NWT REQUIRED            4 OUTER ITERATIONS 
       AND A TOTAL OF          7 INNER ITERATIONS.
    ------------------------------------------------

 NO OUTPUT CONTROL FOR STRESS PERIOD   46   TIME STEP   20
 
 SOLVING FOR HEAD 
                                                   Max.-Head-Change                         Max.-Flux-Residual
  Residual-Control   Outer-Iter.   Inner-Iter.     Column Row Layer    Maximum-Head-Change  Column Row Layer    Maximum-Flux-Residual          L2-NORM 
          0                 1           2             4    7     1       0.4658444205E-01       4    7    1         0.2450980402E+01      0.5891603754E+01
          0                 2           2             4    7     1      -0.4531417922E-02       4    7    1        -0.2450995119E+00      0.5891557390E+00
          0                 3           2             4    7     1       0.3085725897E-03       4    7    1         0.1715696156E-01      0.4124073394E-01
          0                 4           1             4    7     1      -0.1227839300E-04       4    7    1        -0.7017207729E-03      0.1686737562E-02

    ------------------------------------------------
       NWT REQUIRED            4 OUTER ITERATIONS 
       AND A TOTAL OF          7 INNER ITERATIONS.
    ------------------------------------------------

 NO OUTPUT CONTROL FOR STRESS PERIOD   46   TIME STEP   21
 
 SOLVING FOR HEAD 
                                                   Max.-Head-Change                         Max.-Flux-Residual
  Residual-Control   Outer-Iter.   Inner-Iter.     Column Row Layer    Maximum-Head-Change  Column Row Layer    Maximum-Flux-Residual          L2-NORM 
          0                 1           2             4    7     1       0.4598833160E-01       4    7    1         0.2420351512E+01      0.5765385243E+01
          0                 2           2             4    7     1      -0.4473433555E-02       4    7    1        -0.2420366833E+00      0.5765343220E+00
          0                 3           2             4    7     1       0.3046240602E-03       4    7    1         0.1694256290E-01      0.4035723413E-01
          0                 4           1             4    7     1      -0.1212127698E-04       4    7    1        -0.6929518493E-03      0.1650593046E-02

    ------------------------------------------------
       NWT REQUIRED            4 OUTER ITERATIONS 
       AND A TOTAL OF          7 INNER ITERATIONS.
    ------------------------------------------------

 NO OUTPUT CONTROL FOR STRESS PERIOD   46   TIME STEP   22
 
 SOLVING FOR HEAD 
                                                   Max.-Head-Change                         Max.-Flux-Residual
  Residual-Control   Outer-Iter.   Inner-Iter.     Column Row Layer    Maximum-Head-Change  Column Row Layer    Maximum-Flux-Residual          L2-NORM 
          0                 1           2             4    7     1       0.4538688552E-01       4    7    1         0.2389379449E+01      0.5643778745E+01
          0                 2           2             4    7     1      -0.4414930020E-02       4    7    1        -0.2389395269E+00      0.5643741020E+00
          0                 3           2             4    7     1       0.3006401789E-03       4    7    1         0.1672576139E-01      0.3950604881E-01
          0                 4           1             4    7     1      -0.1196275480E-04       4    7    1        -0.6840846509E-03      0.1615797720E-02

    ------------------------------------------------
       NWT REQUIRED            4 OUTER ITERATIONS 
       AND A TOTAL OF          7 INNER ITERATIONS.
    ------------------------------------------------

 NO OUTPUT CONTROL FOR STRESS PERIOD   46   TIME STEP   23
 
 SOLVING FOR HEAD 
                                                   Max.-Head-Change                         Max.-Flux-Residual
  Residual-Control   Outer-Iter.   Inner-Iter.     Column Row Layer    Maximum-Head-Change  Column Row Layer    Maximum-Flux-Residual          L2-NORM 
          0                 1           2             4    7     1       0.4478129306E-01       4    7    1         0.2358130726E+01      0.5526548793E+01
          0                 2           2             4    7     1      -0.4356023016E-02       4    7    1        -0.2358146952E+00      0.5526514450E+00
          0                 3           2             4    7     1       0.2966288240E-03       4    7    1         0.1650702269E-01      0.3868680972E-01
          0                 4           1             4    7     1      -0.1180313901E-04       4    7    1        -0.6751382191E-03      0.1594321419E-02

    ------------------------------------------------
       NWT REQUIRED            4 OUTER ITERATIONS 
       AND A TOTAL OF          7 INNER ITERATIONS.
    ------------------------------------------------

 NO OUTPUT CONTROL FOR STRESS PERIOD   46   TIME STEP   24
 
 SOLVING FOR HEAD 
                                                   Max.-Head-Change                         Max.-Flux-Residual
  Residual-Control   Outer-Iter.   Inner-Iter.     Column Row Layer    Maximum-Head-Change  Column Row Layer    Maximum-Flux-Residual          L2-NORM 
          0                 1           2             4    7     1       0.4417265182E-01       4    7    1         0.2326667005E+01      0.5413446783E+01
          0                 2           2             4    7     1      -0.4296819323E-02       4    7    1        -0.2326683552E+00      0.5413415792E+00
          0                 3           2             4    7     1       0.2925972677E-03       4    7    1         0.1628677851E-01      0.3789377233E-01
          0                 4           1             4    7     1      -0.1164272010E-04       4    7    1        -0.6661302457E-03      0.1549850597E-02

    ------------------------------------------------
       NWT REQUIRED            4 OUTER ITERATIONS 
       AND A TOTAL OF          7 INNER ITERATIONS.
    ------------------------------------------------

 NO OUTPUT CONTROL FOR STRESS PERIOD   46   TIME STEP   25
 
 SOLVING FOR HEAD 
                                                   Max.-Head-Change                         Max.-Flux-Residual
  Residual-Control   Outer-Iter.   Inner-Iter.     Column Row Layer    Maximum-Head-Change  Column Row Layer    Maximum-Flux-Residual          L2-NORM 
          0                 1           2             4    7     1       0.4356198291E-01       4    7    1         0.2295045193E+01      0.5304272039E+01
          0                 2           2             4    7     1      -0.4237418279E-02       4    7    1        -0.2295061986E+00      0.5304243919E+00
          0                 3           2             4    7     1       0.2885522725E-03       4    7    1         0.1606542720E-01      0.3712958671E-01
          0                 4           1             4    7     1      -0.1148176584E-04       4    7    1        -0.6570769531E-03      0.1518589643E-02

    ------------------------------------------------
       NWT REQUIRED            4 OUTER ITERATIONS 
       AND A TOTAL OF          7 INNER ITERATIONS.
    ------------------------------------------------

 NO OUTPUT CONTROL FOR STRESS PERIOD   46   TIME STEP   26
 
 SOLVING FOR HEAD 
                                                   Max.-Head-Change                         Max.-Flux-Residual
  Residual-Control   Outer-Iter.   Inner-Iter.     Column Row Layer    Maximum-Head-Change  Column Row Layer    Maximum-Flux-Residual          L2-NORM 
          0                 1           2             4    7     1       0.4295022403E-01       4    7    1         0.2263318235E+01      0.5198814444E+01
          0                 2           2             4    7     1      -0.4177911109E-02       4    7    1        -0.2263335207E+00      0.5198788941E+00
          0                 3           2             4    7     1       0.2845000523E-03       4    7    1         0.1584333950E-01      0.3639140816E-01
          0                 4           1             4    7     1      -0.1132052446E-04       4    7    1        -0.6479935637E-03      0.1498441356E-02

    ------------------------------------------------
       NWT REQUIRED            4 OUTER ITERATIONS 
       AND A TOTAL OF          7 INNER ITERATIONS.
    ------------------------------------------------

 NO OUTPUT CONTROL FOR STRESS PERIOD   46   TIME STEP   27
 
 SOLVING FOR HEAD 
                                                   Max.-Head-Change                         Max.-Flux-Residual
  Residual-Control   Outer-Iter.   Inner-Iter.     Column Row Layer    Maximum-Head-Change  Column Row Layer    Maximum-Flux-Residual          L2-NORM 
          0                 1           2             4    7     1       0.4233823957E-01       4    7    1         0.2231534750E+01      0.5096887321E+01
          0                 2           2             4    7     1      -0.4118381907E-02       4    7    1        -0.2231551841E+00      0.5096864258E+00
          0                 3           2             4    7     1       0.2804463320E-03       4    7    1         0.1562085570E-01      0.3567794598E-01
          0                 4           1             4    7     1      -0.1115922298E-04       4    7    1        -0.6388939612E-03      0.1459217383E-02

    ------------------------------------------------
       NWT REQUIRED            4 OUTER ITERATIONS 
       AND A TOTAL OF          7 INNER ITERATIONS.
    ------------------------------------------------

 NO OUTPUT CONTROL FOR STRESS PERIOD   46   TIME STEP   28
 
 SOLVING FOR HEAD 
                                                   Max.-Head-Change                         Max.-Flux-Residual
  Residual-Control   Outer-Iter.   Inner-Iter.     Column Row Layer    Maximum-Head-Change  Column Row Layer    Maximum-Flux-Residual          L2-NORM 
          0                 1           2             4    7     1       0.4172669658E-01       4    7    1         0.2199732372E+01      0.4998313987E+01
          0                 2           2             4    7     1      -0.4058895566E-02       4    7    1        -0.2199749528E+00      0.4998292933E+00
          0                 3           2             4    7     1       0.2763955316E-03       4    7    1         0.1539823936E-01      0.3498794232E-01
          0                 4           1             4    7     1      -0.1099803754E-04       4    7    1        -0.6297889322E-03      0.1431009078E-02

    ------------------------------------------------
       NWT REQUIRED            4 OUTER ITERATIONS 
       AND A TOTAL OF          7 INNER ITERATIONS.
    ------------------------------------------------

 NO OUTPUT CONTROL FOR STRESS PERIOD   46   TIME STEP   29
 
 SOLVING FOR HEAD 
                                                   Max.-Head-Change                         Max.-Flux-Residual
  Residual-Control   Outer-Iter.   Inner-Iter.     Column Row Layer    Maximum-Head-Change  Column Row Layer    Maximum-Flux-Residual          L2-NORM 
          0                 1           2             4    7     1       0.4111659317E-01       4    7    1         0.2167967236E+01      0.4902934215E+01
          0                 2           2             4    7     1      -0.3999549188E-02       4    7    1        -0.2167984410E+00      0.4902915129E+00
          0                 3           2             4    7     1       0.2723542632E-03       4    7    1         0.1517588344E-01      0.3432032006E-01
          0                 4           1             4    7     1      -0.1083723192E-04       4    7    1        -0.6206945679E-03      0.1403701145E-02

    ------------------------------------------------
       NWT REQUIRED            4 OUTER ITERATIONS 
       AND A TOTAL OF          7 INNER ITERATIONS.
    ------------------------------------------------

 NO OUTPUT CONTROL FOR STRESS PERIOD   46   TIME STEP   30



 STREAM LISTING     PERIOD     46   STEP       30

 LAYER ROW COL. STREAM  RCH.  FLOW INTO     FLOW TO   FLOW OUT OF   OVRLND.     DIRECT     STREAM       STREAM     STREAM     STREAM   STREAMBED  STREAMBED
                SEG.NO.  NO.  STRM. RCH.    AQUIFER    STRM. RCH.    RUNOFF     PRECIP       ET          HEAD       DEPTH      WIDTH   CONDCTNC.   GRADIENT

   1    1    1     1     1    9.3747E+00  1.4265E-01   9.2321E+00  0.000E+00  0.000E+00  0.000E+00  1.09393E+03  8.788E-01  8.172E+00  3.678E-02  1.293E+00
   1    2    2     1     2    9.2321E+00  2.1921E-01   9.0129E+00  0.000E+00  0.000E+00  0.000E+00  1.08893E+03  8.731E-01  8.085E+00  5.660E-02  1.291E+00
   1    3    3     1     3    9.0129E+00  1.8531E-01   8.8275E+00  0.000E+00  0.000E+00  0.000E+00  1.08329E+03  8.667E-01  7.987E+00  4.792E-02  1.289E+00
   1    3    4     1     4    8.8275E+00  1.6930E-01   8.6583E+00  0.000E+00  0.000E+00  0.000E+00  1.07827E+03  8.609E-01  7.901E+00  4.385E-02  1.287E+00
   1    4    5     2     1    6.6583E+00  2.7605E-01   6.3822E+00  0.000E+00  0.000E+00  0.000E+00  1.07247E+03  5.391E-01  1.200E+01  7.800E-02  1.180E+00
   1    5    6     2     2    6.3822E+00  2.1162E-01   6.1706E+00  0.000E+00  0.000E+00  0.000E+00  1.06704E+03  5.270E-01  1.200E+01  6.000E-02  1.176E+00
   1    6    6     2     3    6.1706E+00  2.1097E-01   5.9596E+00  0.000E+00  0.000E+00  0.000E+00  1.06231E+03  5.162E-01  1.200E+01  6.000E-02  1.172E+00
   1    7    6     2     4    5.9596E+00  2.1032E-01   5.7493E+00  0.000E+00  0.000E+00  0.000E+00  1.05758E+03  5.054E-01  1.200E+01  6.000E-02  1.168E+00
   1    8    6     2     5    5.7493E+00  2.0967E-01   5.5396E+00  0.000E+00  0.000E+00  0.000E+00  1.05285E+03  4.944E-01  1.200E+01  6.000E-02  1.165E+00
   1    3    5     3     1    2.0000E+00  2.8252E-01   1.7175E+00  0.000E+00  0.000E+00  0.000E+00  1.07555E+03  1.909E+00  9.636E+00  7.227E-02  1.955E+00
   1    3    6     3     2    1.7175E+00  2.4905E-01   1.4684E+00  0.000E+00  0.000E+00  0.000E+00  1.07264E+03  1.727E+00  8.909E+00  6.682E-02  1.864E+00
   1    3    7     3     3    1.4684E+00  1.9718E-01   1.2712E+00  0.000E+00  0.000E+00  0.000E+00  1.06987E+03  1.555E+00  8.218E+00  5.547E-02  1.777E+00
   1    4    8     3     4    1.2712E+00  2.2567E-01   1.0456E+00  0.000E+00  0.000E+00  0.000E+00  1.06682E+03  1.364E+00  7.455E+00  6.709E-02  1.682E+00
   1    5    8     3     5    1.0456E+00  1.5790E-01   8.8768E-01  0.000E+00  0.000E+00  0.000E+00  1.06362E+03  1.164E+00  6.655E+00  4.991E-02  1.582E+00
   1    6    8     3     6    8.8768E-01  5.5980E-02   8.3170E-01  0.000E+00  0.000E+00  0.000E+00  1.06158E+03  1.036E+00  6.145E+00  1.844E-02  1.518E+00
   1    5   10     4     1    1.0000E+01  9.0919E-02   9.9091E+00  0.000E+00  0.000E+00  0.000E+00  1.07836E+03  6.368E-01  1.000E+01  2.500E-02  1.212E+00
   1    5    9     4     2    9.9091E+00  1.8158E-01   9.7275E+00  0.000E+00  0.000E+00  0.000E+00  1.07154E+03  6.315E-01  1.000E+01  5.000E-02  1.211E+00
   1    6    8     4     3    9.7275E+00  1.2689E-01   9.6006E+00  0.000E+00  0.000E+00  0.000E+00  1.06381E+03  6.256E-01  1.000E+01  3.500E-02  1.209E+00
   1    6    8     5     1    1.0432E+01  2.2686E-01   1.0205E+01  0.000E+00  0.000E+00  0.000E+00  1.05868E+03  6.790E-01  1.542E+01  6.166E-02  1.226E+00
   1    7    7     5     2    1.0205E+01  2.7894E-01   9.9265E+00  0.000E+00  0.000E+00  0.000E+00  1.05417E+03  6.732E-01  1.519E+01  7.594E-02  1.224E+00
   1    8    7     5     3    9.9265E+00  1.9221E-01   9.7343E+00  0.000E+00  0.000E+00  0.000E+00  1.04992E+03  6.676E-01  1.497E+01  5.241E-02  1.223E+00
   1    8    6     5     4    9.7343E+00  1.3577E-01   9.5985E+00  0.000E+00  0.000E+00  0.000E+00  1.04691E+03  6.637E-01  1.482E+01  3.706E-02  1.221E+00
   1    9    6     6     1    1.5138E+01  2.3397E-01   1.4904E+01  0.000E+00  0.000E+00  0.000E+00  1.04363E+03  8.995E-01  1.200E+01  6.000E-02  1.300E+00
   1   10    7     6     2    1.4904E+01  2.3346E-01   1.4671E+01  0.000E+00  0.000E+00  0.000E+00  1.03907E+03  8.911E-01  1.200E+01  6.000E-02  1.297E+00
   1   11    7     6     3    1.4671E+01  2.3296E-01   1.4438E+01  0.000E+00  0.000E+00  0.000E+00  1.03452E+03  8.826E-01  1.200E+01  6.000E-02  1.294E+00
   1   12    7     6     4    1.4438E+01  2.3245E-01   1.4205E+01  0.000E+00  0.000E+00  0.000E+00  1.02997E+03  8.741E-01  1.200E+01  6.000E-02  1.291E+00
   1   13    7     6     5    1.4205E+01  1.0891E-02   1.4194E+01  0.000E+00  0.000E+00  0.000E+00  1.02678E+03  8.696E-01  1.200E+01  2.400E-02  1.513E-01
   1   14    9     7     1    1.5000E+02  1.4138E+00   1.4859E+02  0.000E+00  0.000E+00  0.000E+00  1.03987E+03  2.288E+00  5.529E+01  5.593E-01  8.426E-01
   1   13    8     7     2    1.4859E+02  2.0803E+00   1.4651E+02  0.000E+00  0.000E+00  0.000E+00  1.03478E+03  2.278E+00  5.525E+01  6.147E-01  1.128E+00
   1   13    7     7     3    1.4651E+02  1.8771E+00   1.4463E+02  0.000E+00  0.000E+00  0.000E+00  1.02969E+03  2.268E+00  5.520E+01  5.583E-01  1.121E+00
   1   13    6     8     1    1.5882E+02  1.2461E+00   1.5758E+02  0.000E+00  0.000E+00  0.000E+00  1.02475E+03  2.874E+00  4.167E+01  4.246E-01  9.783E-01
   1   13    5     8     2    1.5758E+02  4.8059E-01   1.5710E+02  0.000E+00  0.000E+00  0.000E+00  1.01849E+03  2.868E+00  4.158E+01  4.237E-01  3.781E-01
   1   13    4     8     3    1.5710E+02 -1.3927E+00   1.5849E+02  0.000E+00  0.000E+00  0.000E+00  1.01225E+03  2.871E+00  4.163E+01  4.242E+00 -1.094E-01
   1   13    3     8     4    1.5849E+02 -3.1382E+00   1.6163E+02  0.000E+00  0.000E+00  0.000E+00  1.00601E+03  2.886E+00  4.185E+01  4.265E+00 -2.453E-01
   1   13    2     8     5    1.6163E+02 -2.4617E+00   1.6409E+02  0.000E+00  0.000E+00  0.000E+00  9.99780E+02  2.905E+00  4.212E+01  4.293E+00 -1.912E-01
   1   13    1     8     6    1.6409E+02 -1.9658E+00   1.6605E+02  0.000E+00  0.000E+00  0.000E+00  9.94795E+02  2.920E+00  4.234E+01  2.589E+00 -2.531E-01
   1    8    6     9     1    0.0000E+00  0.0000E+00   0.0000E+00  0.000E+00  0.000E+00  0.000E+00  1.07875E+03  0.000E+00  4.000E+00  0.000E+00  1.000E+00
   1    8    5     9     2    0.0000E+00  0.0000E+00   0.0000E+00  0.000E+00  0.000E+00  0.000E+00  1.07825E+03  0.000E+00  4.000E+00  0.000E+00  1.000E+00





UNSATURATED ZONE PACKAGE VOLUMETRIC BUDGET FOR  TIME STEP    30 STRESS PERIOD   46
  ------------------------------------------------------------------------------



     CUMULATIVE VOLUMES      L**3       RATES FOR THIS TIME STEP      L**3/T
     ------------------                 ------------------------

           IN:                                      IN:
           ---                                      ---
        INFILTRATION =  1698258128.3849          INFILTRATION =          12.0675

          OUT:                                     OUT:
          ----                                     ----
              UZF ET =  1697432563.4117                UZF ET =          12.0675
        UZF RECHARGE =       73224.0000          UZF RECHARGE =       0.0000E+00

            IN - OUT =      752340.9732              IN - OUT =       0.0000E+00

          STORAGE:                                 STORAGE:
          --------                                 --------
      STORAGE CHANGE =      752341.1305        STORAGE CHANGE =       4.9797E-16

 PERCENT DISCREPANCY IS DIFFERENCE BETWEEN IN-OUT MINUS CHANGE IN STORAGE
 DIVIDED BY THE AVERAGE OF IN AND OUT TIMES 100

 PERCENT DISCREPANCY =           0.00     PERCENT DISCREPANCY =           0.00






1
  VOLUMETRIC BUDGET FOR AGRICULTURAL FIELDS AT  END OF TIME STEP   30, STRESS PERIOD  46
  ------------------------------------------------------------------------------

     CUMULATIVE VOLUMES      L**3       RATES FOR THIS TIME STEP      L**3/T
     ------------------                 ------------------------

           IN:                                      IN:
           ---                                      ---
               AG WELLS  =  1597881984.0000                 AG WELLS  =          11.2200
      DIVERSION SEGMENTS =           0.0000        DIVERSION SEGMENTS =           0.0000
       IRRIGATION PONDS  =           0.0000         IRRIGATION PONDS  =           0.0000
           GW IRRIGATION =           0.0000             GW IRRIGATION =           0.0000
           SW IRRIGATION =           0.0000             SW IRRIGATION =           0.0000
        SYSTEM LOSSES GW =           0.0000          SYSTEM LOSSES GW =           0.0000
        SYSTEM LOSSES SW =           0.0000          SYSTEM LOSSES SW =           0.0000

                TOTAL IN =  1597881984.0000                  TOTAL IN =          11.2200

          OUT:                                     OUT:
          ----                                     ----
               AG WELLS  =           0.0000                 AG WELLS  =           0.0000
      DIVERSION SEGMENTS =           0.0000        DIVERSION SEGMENTS =           0.0000
       IRRIGATION PONDS  =           0.0000         IRRIGATION PONDS  =           0.0000
           GW IRRIGATION =  1597881984.0000             GW IRRIGATION =          11.2200
           SW IRRIGATION =           0.0000             SW IRRIGATION =           0.0000
        SYSTEM LOSSES GW =           0.0000          SYSTEM LOSSES GW =           0.0000
        SYSTEM LOSSES SW =           0.0000          SYSTEM LOSSES SW =           0.0000

               TOTAL OUT =  1597881984.0000                 TOTAL OUT =          11.2200

                IN - OUT =           0.0000                  IN - OUT =           0.0000

     PERCENT DISCREPANCY =           0.00         PERCENT DISCREPANCY =           0.00



1
  VOLUMETRIC BUDGET FOR ENTIRE MODEL AT END OF TIME STEP   30, STRESS PERIOD  46
  ------------------------------------------------------------------------------

     CUMULATIVE VOLUMES      L**3       RATES FOR THIS TIME STEP      L**3/T
     ------------------                 ------------------------

           IN:                                      IN:
           ---                                      ---
             STORAGE     =  2045104896.0000               STORAGE     =          17.8036
       CONSTANT HEAD     =           0.0000         CONSTANT HEAD     =           0.0000
     HEAD DEP BOUNDS     =    34217680.0000       HEAD DEP BOUNDS     =           0.2911
      STREAM LEAKAGE     =  1442973952.0000        STREAM LEAKAGE     =          12.2781
        UZF RECHARGE     =       73223.9531          UZF RECHARGE     =           0.0000
               GW ET     =           0.0000                 GW ET     =           0.0000
     SURFACE LEAKAGE     =           0.0000       SURFACE LEAKAGE     =           0.0000
           AG WELLS      =           0.0000             AG WELLS      =           0.0000

                TOTAL IN =  3522369792.0000                  TOTAL IN =          30.3728

          OUT:                                     OUT:
          ----                                     ----
             STORAGE     =   751293312.0000               STORAGE     =           9.9075
       CONSTANT HEAD     =           0.0000         CONSTANT HEAD     =           0.0000
     HEAD DEP BOUNDS     =    34198224.0000       HEAD DEP BOUNDS     =           0.2871
      STREAM LEAKAGE     =  1139010176.0000        STREAM LEAKAGE     =           8.9583
        UZF RECHARGE     =           0.0000          UZF RECHARGE     =           0.0000
               GW ET     =           0.0000                 GW ET     =           0.0000
     SURFACE LEAKAGE     =           0.0000       SURFACE LEAKAGE     =           0.0000
           AG WELLS      =  1597881984.0000             AG WELLS      =          11.2200

               TOTAL OUT =  3522383872.0000                 TOTAL OUT =          30.3729

                IN - OUT =      -14080.0000                  IN - OUT =      -2.6703E-05

     PERCENT DISCREPANCY =          -0.00         PERCENT DISCREPANCY =          -0.00






         TIME SUMMARY AT END OF TIME STEP   30 IN STRESS PERIOD   46
                    SECONDS     MINUTES      HOURS       DAYS        YEARS
                    -----------------------------------------------------------
   TIME STEP LENGTH  87667.      1461.1      24.352      1.0147     2.77799E-03
 STRESS PERIOD TIME 2.63000E+06  43833.      730.56      30.440     8.33397E-02
         TOTAL TIME 1.18435E+08 1.97392E+06  32899.      1370.8      3.7530    
1
1
                            STRESS PERIOD NO.   47, LENGTH =   2630000.    
                            -----------------------------------------------

                              NUMBER OF TIME STEPS =    30

                               MULTIPLIER FOR DELT =     1.000

                            INITIAL TIME STEP SIZE =   87666.66    

 REUSING NON-PARAMETER GHB CELLS FROM LAST STRESS PERIOD

      2 GHB CELLS

 REUSING STREAM SEGMENT DATA FROM LAST STRESS PERIOD



            AREAL INFILTRATION RATE
 READING ON UNIT   19 WITH FORMAT: (FREE)              

            1           2           3           4           5           6           7           8           9          10
 ........................................................................................................................
   1   1.0000E-10  2.0000E-10   0.000       0.000       0.000       0.000       0.000       0.000       0.000       0.000    
   2   2.0000E-10  1.0000E-10  2.0000E-10   0.000       0.000      8.0000E-10  8.0000E-10  5.0000E-10   0.000       0.000    
   3    0.000      5.0000E-10  1.0000E-10  1.0000E-10  8.0000E-10  8.0000E-10  5.0000E-10  5.0000E-10   0.000       0.000    
   4   8.0000E-10  5.0000E-10  1.0000E-10  1.0000E-10  1.0000E-10  1.0000E-10  1.0000E-10  1.0000E-10  2.0000E-10   0.000    
   5   8.0000E-10  5.0000E-10  1.0000E-10  1.0000E-10  1.0000E-10  1.0000E-10  1.0000E-10  1.0000E-10  1.0000E-10  1.0000E-10
   6   8.0000E-10  5.0000E-10  5.0000E-10  2.0000E-10  2.0000E-10  1.0000E-10  1.0000E-10  1.0000E-10  1.0000E-10  5.0000E-10
   7   8.0000E-10  5.0000E-10  5.0000E-10  2.0000E-10  2.0000E-10  1.0000E-10  1.0000E-10  2.0000E-10  2.0000E-10   0.000    
   8    0.000      5.0000E-10  5.0000E-10  2.0000E-10  2.0000E-10  1.0000E-10  1.0000E-10  2.0000E-10  5.0000E-10   0.000    
   9    0.000      5.0000E-10  5.0000E-10  2.0000E-10  2.0000E-10  1.0000E-10  1.0000E-10  2.0000E-10  5.0000E-10   0.000    
  10    0.000      5.0000E-10  5.0000E-10  2.0000E-10  2.0000E-10  1.0000E-10  1.0000E-10  2.0000E-10  5.0000E-10  8.0000E-10
  11    0.000      1.0000E-10  1.0000E-10  1.0000E-10  1.0000E-10  1.0000E-10  1.0000E-10  2.0000E-10  5.0000E-10   0.000    
  12   1.0000E-10  1.0000E-10  1.0000E-10  1.0000E-10  1.0000E-10  1.0000E-10  1.0000E-10  1.0000E-10  2.0000E-10   0.000    
  13   1.0000E-10  1.0000E-10  2.0000E-10  2.0000E-10  2.0000E-10  2.0000E-10  2.0000E-10  1.0000E-10  1.0000E-10   0.000    
  14    0.000      2.0000E-10  5.0000E-10  5.0000E-10  5.0000E-10  5.0000E-10  5.0000E-10  2.0000E-10  1.0000E-10   0.000    
  15    0.000       0.000      8.0000E-10  8.0000E-10  8.0000E-10  8.0000E-10   0.000       0.000       0.000       0.000    

                  ET RATE =  5.000000E-09

 USING ET EXTINCTION DEPTH FROM PREVIOUS STRESS PERIOD. CURRENT PERIOD IS:      47

 USING EXTINCTION WATER CONTENT FROM PREVIOUS STRESS PERIOD. CURRENT PERIOD IS:      47

 USING AIR ENTRY PRESSURE FROM PREVIOUS STRESS PERIOD. CURRENT PERIOD IS:      47

 USING ROOT PRESSURE HEAD FROM PREVIOUS STRESS PERIOD. CURRENT PERIOD IS:      47

 USING ROOT ACTIVITY FROM PREVIOUS STRESS PERIOD. CURRENT PERIOD IS:      47

 PROCESSING AG STRESS PERIOD DATA

 READING AG STRESS PERIOD DATA

 READING IRRIGATION SEGMENT

 READING IRRIGATION WELL

 READING SUPPLEMENTAL WELL

 NO IRRPOND OR REUSING IRRPOND DATA FROM LAST STRESS PERIOD

 END PROCESSING AG STRESS PERIOD DATA OPTIONS
 
 SOLVING FOR HEAD 
                                                   Max.-Head-Change                         Max.-Flux-Residual
  Residual-Control   Outer-Iter.   Inner-Iter.     Column Row Layer    Maximum-Head-Change  Column Row Layer    Maximum-Flux-Residual          L2-NORM 
          0                 1           2             4    7     1       0.7403549739E-01       4    7    1         0.3886262367E+01      0.8726325993E+01
          0                 2           2             4    7     1      -0.7201694792E-02       4    7    1        -0.3886303099E+00      0.8726320742E+00
          0                 3           2             4    7     1       0.4904081328E-03       4    7    1         0.2720409491E-01      0.6108420054E-01
          0                 4           1             4    7     1      -0.1951380095E-04       4    7    1        -0.1112649202E-02      0.2498339500E-02

    ------------------------------------------------
       NWT REQUIRED            4 OUTER ITERATIONS 
       AND A TOTAL OF          7 INNER ITERATIONS.
    ------------------------------------------------

 NO OUTPUT CONTROL FOR STRESS PERIOD   47   TIME STEP    1
 
 SOLVING FOR HEAD 
                                                   Max.-Head-Change                         Max.-Flux-Residual
  Residual-Control   Outer-Iter.   Inner-Iter.     Column Row Layer    Maximum-Head-Change  Column Row Layer    Maximum-Flux-Residual          L2-NORM 
          0                 1           2             4    7     1       0.7326082043E-01       4    7    1         0.3846611272E+01      0.8556649820E+01
          0                 2           2             4    7     1      -0.7126341765E-02       4    7    1        -0.3846653275E+00      0.8556648359E+00
          0                 3           2             4    7     1       0.4852768522E-03       4    7    1         0.2692654481E-01      0.5989649719E-01
          0                 4           1             4    7     1      -0.1930962296E-04       4    7    1        -0.1101297407E-02      0.2449766118E-02

    ------------------------------------------------
       NWT REQUIRED            4 OUTER ITERATIONS 
       AND A TOTAL OF          7 INNER ITERATIONS.
    ------------------------------------------------

 NO OUTPUT CONTROL FOR STRESS PERIOD   47   TIME STEP    2
 
 SOLVING FOR HEAD 
                                                   Max.-Head-Change                         Max.-Flux-Residual
  Residual-Control   Outer-Iter.   Inner-Iter.     Column Row Layer    Maximum-Head-Change  Column Row Layer    Maximum-Flux-Residual          L2-NORM 
          0                 1           2             4    7     1       0.7247628907E-01       4    7    1         0.3806359752E+01      0.8393372604E+01
          0                 2           2             4    7     1      -0.7050029843E-02       4    7    1        -0.3806402804E+00      0.8393374403E+00
          0                 3           2             4    7     1       0.4800802780E-03       4    7    1         0.2664479042E-01      0.5875358010E-01
          0                 4           1             4    7     1      -0.1910284631E-04       4    7    1        -0.1089773637E-02      0.2403014583E-02

    ------------------------------------------------
       NWT REQUIRED            4 OUTER ITERATIONS 
       AND A TOTAL OF          7 INNER ITERATIONS.
    ------------------------------------------------

 NO OUTPUT CONTROL FOR STRESS PERIOD   47   TIME STEP    3
 
 SOLVING FOR HEAD 
                                                   Max.-Head-Change                         Max.-Flux-Residual
  Residual-Control   Outer-Iter.   Inner-Iter.     Column Row Layer    Maximum-Head-Change  Column Row Layer    Maximum-Flux-Residual          L2-NORM 
          0                 1           2             4    7     1       0.7168365188E-01       4    7    1         0.3765604451E+01      0.8236117781E+01
          0                 2           2             4    7     1      -0.6972929142E-02       4    7    1        -0.3765648353E+00      0.8236122546E+00
          0                 3           2             4    7     1       0.4748299931E-03       4    7    1         0.2635950831E-01      0.5765281186E-01
          0                 4           1             4    7     1      -0.1889393266E-04       4    7    1        -0.1078105580E-02      0.2357998455E-02

    ------------------------------------------------
       NWT REQUIRED            4 OUTER ITERATIONS 
       AND A TOTAL OF          7 INNER ITERATIONS.
    ------------------------------------------------

 NO OUTPUT CONTROL FOR STRESS PERIOD   47   TIME STEP    4
 
 SOLVING FOR HEAD 
                                                   Max.-Head-Change                         Max.-Flux-Residual
  Residual-Control   Outer-Iter.   Inner-Iter.     Column Row Layer    Maximum-Head-Change  Column Row Layer    Maximum-Flux-Residual          L2-NORM 
          0                 1           2             4    7     1       0.7088415423E-01       4    7    1         0.3724414468E+01      0.8084523800E+01
          0                 2           2             4    7     1      -0.6895160833E-02       4    7    1        -0.3724459036E+00      0.8084530970E+00
          0                 3           2             4    7     1       0.4695342497E-03       4    7    1         0.2607118233E-01      0.5659166294E-01
          0                 4           1             4    7     1      -0.1868321000E-04       4    7    1        -0.1066313034E-02      0.2314591273E-02

    ------------------------------------------------
       NWT REQUIRED            4 OUTER ITERATIONS 
       AND A TOTAL OF          7 INNER ITERATIONS.
    ------------------------------------------------

 NO OUTPUT CONTROL FOR STRESS PERIOD   47   TIME STEP    5
 
 SOLVING FOR HEAD 
                                                   Max.-Head-Change                         Max.-Flux-Residual
  Residual-Control   Outer-Iter.   Inner-Iter.     Column Row Layer    Maximum-Head-Change  Column Row Layer    Maximum-Flux-Residual          L2-NORM 
          0                 1           2             4    7     1       0.7007947680E-01       4    7    1         0.3682883128E+01      0.7938266822E+01
          0                 2           2             4    7     1      -0.6816888425E-02       4    7    1        -0.3682928197E+00      0.7938276249E+00
          0                 3           2             4    7     1       0.4642041813E-03       4    7    1         0.2578046586E-01      0.5556788664E-01
          0                 4           1             4    7     1      -0.1847112159E-04       4    7    1        -0.1054422713E-02      0.2272726615E-02

    ------------------------------------------------
       NWT REQUIRED            4 OUTER ITERATIONS 
       AND A TOTAL OF          7 INNER ITERATIONS.
    ------------------------------------------------

 NO OUTPUT CONTROL FOR STRESS PERIOD   47   TIME STEP    6
 
 SOLVING FOR HEAD 
                                                   Max.-Head-Change                         Max.-Flux-Residual
  Residual-Control   Outer-Iter.   Inner-Iter.     Column Row Layer    Maximum-Head-Change  Column Row Layer    Maximum-Flux-Residual          L2-NORM 
          0                 1           2             4    7     1       0.6927078974E-01       4    7    1         0.3641076003E+01      0.7798529794E+01
          0                 2           2             4    7     1      -0.6738225766E-02       4    7    1        -0.3641121425E+00      0.7798532305E+00
          0                 3           2             4    7     1       0.4588475410E-03       4    7    1         0.2548781801E-01      0.5458960596E-01
          0                 4           1             4    7     1      -0.1825797585E-04       4    7    1        -0.1042453403E-02      0.2232710672E-02

    ------------------------------------------------
       NWT REQUIRED            4 OUTER ITERATIONS 
       AND A TOTAL OF          7 INNER ITERATIONS.
    ------------------------------------------------

 NO OUTPUT CONTROL FOR STRESS PERIOD   47   TIME STEP    7
 
 SOLVING FOR HEAD 
                                                   Max.-Head-Change                         Max.-Flux-Residual
  Residual-Control   Outer-Iter.   Inner-Iter.     Column Row Layer    Maximum-Head-Change  Column Row Layer    Maximum-Flux-Residual          L2-NORM 
          0                 1           2             4    7     1       0.6845931879E-01       4    7    1         0.3599060954E+01      0.7663291700E+01
          0                 2           2             4    7     1      -0.6659292109E-02       4    7    1        -0.3599106593E+00      0.7663287090E+00
          0                 3           2             4    7     1       0.4534724484E-03       4    7    1         0.2519371386E-01      0.5364280395E-01
          0                 4           1             4    7     1      -0.1804409571E-04       4    7    1        -0.1030424526E-02      0.2193960669E-02

    ------------------------------------------------
       NWT REQUIRED            4 OUTER ITERATIONS 
       AND A TOTAL OF          7 INNER ITERATIONS.
    ------------------------------------------------

 NO OUTPUT CONTROL FOR STRESS PERIOD   47   TIME STEP    8
 
 SOLVING FOR HEAD 
                                                   Max.-Head-Change                         Max.-Flux-Residual
  Residual-Control   Outer-Iter.   Inner-Iter.     Column Row Layer    Maximum-Head-Change  Column Row Layer    Maximum-Flux-Residual          L2-NORM 
          0                 1           2             4    7     1       0.6764606937E-01       4    7    1         0.3556894339E+01      0.7531239505E+01
          0                 2           2             4    7     1      -0.6580185274E-02       4    7    1        -0.3556940073E+00      0.7531237847E+00
          0                 3           2             4    7     1       0.4480855645E-03       4    7    1         0.2489854800E-01      0.5271847730E-01
          0                 4           1             4    7     1      -0.1782974688E-04       4    7    1        -0.1018352231E-02      0.2156179295E-02

    ------------------------------------------------
       NWT REQUIRED            4 OUTER ITERATIONS 
       AND A TOTAL OF          7 INNER ITERATIONS.
    ------------------------------------------------

 NO OUTPUT CONTROL FOR STRESS PERIOD   47   TIME STEP    9
 
 SOLVING FOR HEAD 
                                                   Max.-Head-Change                         Max.-Flux-Residual
  Residual-Control   Outer-Iter.   Inner-Iter.     Column Row Layer    Maximum-Head-Change  Column Row Layer    Maximum-Flux-Residual          L2-NORM 
          0                 1           2             4    7     1       0.6683237242E-01       4    7    1         0.3514649869E+01      0.7403456546E+01
          0                 2           2             4    7     1      -0.6501034745E-02       4    7    1        -0.3514695591E+00      0.7403457392E+00
          0                 3           2             4    7     1       0.4426957069E-03       4    7    1         0.2460283650E-01      0.5182401650E-01
          0                 4           1             4    7     1      -0.1761527947E-04       4    7    1        -0.1006257623E-02      0.2119592431E-02

    ------------------------------------------------
       NWT REQUIRED            4 OUTER ITERATIONS 
       AND A TOTAL OF          7 INNER ITERATIONS.
    ------------------------------------------------

 NO OUTPUT CONTROL FOR STRESS PERIOD   47   TIME STEP   10
 
 SOLVING FOR HEAD 
                                                   Max.-Head-Change                         Max.-Flux-Residual
  Residual-Control   Outer-Iter.   Inner-Iter.     Column Row Layer    Maximum-Head-Change  Column Row Layer    Maximum-Flux-Residual          L2-NORM 
          0                 1           2             4    7     1       0.6601893609E-01       4    7    1         0.3472367777E+01      0.7279716575E+01
          0                 2           2             4    7     1      -0.6421909419E-02       4    7    1        -0.3472413387E+00      0.7279719631E+00
          0                 3           2             4    7     1       0.4373075669E-03       4    7    1         0.2430686105E-01      0.5095786735E-01
          0                 4           1             4    7     1      -0.1740088022E-04       4    7    1        -0.9941521987E-03      0.2084178477E-02

    ------------------------------------------------
       NWT REQUIRED            4 OUTER ITERATIONS 
       AND A TOTAL OF          7 INNER ITERATIONS.
    ------------------------------------------------

 NO OUTPUT CONTROL FOR STRESS PERIOD   47   TIME STEP   11
 
 SOLVING FOR HEAD 
                                                   Max.-Head-Change                         Max.-Flux-Residual
  Residual-Control   Outer-Iter.   Inner-Iter.     Column Row Layer    Maximum-Head-Change  Column Row Layer    Maximum-Flux-Residual          L2-NORM 
          0                 1           2             4    7     1       0.6520693922E-01       4    7    1         0.3430113558E+01      0.7159818070E+01
          0                 2           2             4    7     1      -0.6342923985E-02       4    7    1        -0.3430158969E+00      0.7159823176E+00
          0                 3           2             4    7     1       0.4319289545E-03       4    7    1         0.2401108020E-01      0.5011860109E-01
          0                 4           1             4    7     1      -0.1718686009E-04       4    7    1        -0.9820547432E-03      0.2049839635E-02

    ------------------------------------------------
       NWT REQUIRED            4 OUTER ITERATIONS 
       AND A TOTAL OF          7 INNER ITERATIONS.
    ------------------------------------------------

 NO OUTPUT CONTROL FOR STRESS PERIOD   47   TIME STEP   12
 
 SOLVING FOR HEAD 
                                                   Max.-Head-Change                         Max.-Flux-Residual
  Residual-Control   Outer-Iter.   Inner-Iter.     Column Row Layer    Maximum-Head-Change  Column Row Layer    Maximum-Flux-Residual          L2-NORM 
          0                 1           2             4    7     1       0.6439694563E-01       4    7    1         0.3387919551E+01      0.7043562052E+01
          0                 2           2             4    7     1      -0.6264133298E-02       4    7    1        -0.3387964685E+00      0.7043568870E+00
          0                 3           2             4    7     1       0.4265636044E-03       4    7    1         0.2371572032E-01      0.4930484691E-01
          0                 4           1             4    7     1      -0.1697336804E-04       4    7    1        -0.9699745099E-03      0.2016558571E-02

    ------------------------------------------------
       NWT REQUIRED            4 OUTER ITERATIONS 
       AND A TOTAL OF          7 INNER ITERATIONS.
    ------------------------------------------------

 NO OUTPUT CONTROL FOR STRESS PERIOD   47   TIME STEP   13
 
 SOLVING FOR HEAD 
                                                   Max.-Head-Change                         Max.-Flux-Residual
  Residual-Control   Outer-Iter.   Inner-Iter.     Column Row Layer    Maximum-Head-Change  Column Row Layer    Maximum-Flux-Residual          L2-NORM 
          0                 1           2             4    7     1       0.6358986038E-01       4    7    1         0.3345836577E+01      0.6930773186E+01
          0                 2           2             4    7     1      -0.6185625411E-02       4    7    1        -0.3345881366E+00      0.6930781383E+00
          0                 3           2             4    7     1       0.4212175132E-03       4    7    1         0.2342113730E-01      0.4851533209E-01
          0                 4           1             4    7     1      -0.1676064171E-04       4    7    1        -0.9579260338E-03      0.1984268707E-02

    ------------------------------------------------
       NWT REQUIRED            4 OUTER ITERATIONS 
       AND A TOTAL OF          7 INNER ITERATIONS.
    ------------------------------------------------

 NO OUTPUT CONTROL FOR STRESS PERIOD   47   TIME STEP   14
 
 SOLVING FOR HEAD 
                                                   Max.-Head-Change                         Max.-Flux-Residual
  Residual-Control   Outer-Iter.   Inner-Iter.     Column Row Layer    Maximum-Head-Change  Column Row Layer    Maximum-Flux-Residual          L2-NORM 
          0                 1           2             4    7     1       0.6278639378E-01       4    7    1         0.3303904368E+01      0.6821292765E+01
          0                 2           2             4    7     1      -0.6107469428E-02       4    7    1        -0.3303948750E+00      0.6821302166E+00
          0                 3           2             4    7     1       0.4158953868E-03       4    7    1         0.2312760925E-01      0.4774898087E-01
          0                 4           1             4    7     1      -0.1654886978E-04       4    7    1        -0.9459207461E-03      0.1952928561E-02

    ------------------------------------------------
       NWT REQUIRED            4 OUTER ITERATIONS 
       AND A TOTAL OF          7 INNER ITERATIONS.
    ------------------------------------------------

 NO OUTPUT CONTROL FOR STRESS PERIOD   47   TIME STEP   15
 
 SOLVING FOR HEAD 
                                                   Max.-Head-Change                         Max.-Flux-Residual
  Residual-Control   Outer-Iter.   Inner-Iter.     Column Row Layer    Maximum-Head-Change  Column Row Layer    Maximum-Flux-Residual          L2-NORM 
          0                 1           2             4    7     1       0.6198718836E-01       4    7    1         0.3262159752E+01      0.6714956246E+01
          0                 2           2             4    7     1      -0.6029727862E-02       4    7    1        -0.3262203674E+00      0.6714966470E+00
          0                 3           2             4    7     1       0.4106014806E-03       4    7    1         0.2283539400E-01      0.4700463015E-01
          0                 4           1             4    7     1      -0.1633822024E-04       4    7    1        -0.9339691162E-03      0.1922478635E-02

    ------------------------------------------------
       NWT REQUIRED            4 OUTER ITERATIONS 
       AND A TOTAL OF          7 INNER ITERATIONS.
    ------------------------------------------------

 NO OUTPUT CONTROL FOR STRESS PERIOD   47   TIME STEP   16
 
 SOLVING FOR HEAD 
                                                   Max.-Head-Change                         Max.-Flux-Residual
  Residual-Control   Outer-Iter.   Inner-Iter.     Column Row Layer    Maximum-Head-Change  Column Row Layer    Maximum-Flux-Residual          L2-NORM 
          0                 1           2             4    7     1       0.6119296853E-01       4    7    1         0.3220643246E+01      0.6611631952E+01
          0                 2           2             4    7     1      -0.5952471189E-02       4    7    1        -0.3220686660E+00      0.6611643201E+00
          0                 3           2             4    7     1       0.4053405952E-03       4    7    1         0.2254477528E-01      0.4628137889E-01
          0                 4           1             4    7     1      -0.1612888464E-04       4    7    1        -0.9220827931E-03      0.1892904009E-02

    ------------------------------------------------
       NWT REQUIRED            4 OUTER ITERATIONS 
       AND A TOTAL OF          7 INNER ITERATIONS.
    ------------------------------------------------

 NO OUTPUT CONTROL FOR STRESS PERIOD   47   TIME STEP   17
 
 SOLVING FOR HEAD 
                                                   Max.-Head-Change                         Max.-Flux-Residual
  Residual-Control   Outer-Iter.   Inner-Iter.     Column Row Layer    Maximum-Head-Change  Column Row Layer    Maximum-Flux-Residual          L2-NORM 
          0                 1           2             4    7     1       0.6040399921E-01       4    7    1         0.3179370804E+01      0.6511164608E+01
          0                 2           2             4    7     1      -0.5875725186E-02       4    7    1        -0.3179413670E+00      0.6511176515E+00
          0                 3           2             4    7     1       0.4001144845E-03       4    7    1         0.2225586474E-01      0.4557812550E-01
          0                 4           1             4    7     1      -0.1592093242E-04       4    7    1        -0.9102663182E-03      0.1864138207E-02

    ------------------------------------------------
       NWT REQUIRED            4 OUTER ITERATIONS 
       AND A TOTAL OF          7 INNER ITERATIONS.
    ------------------------------------------------

 NO OUTPUT CONTROL FOR STRESS PERIOD   47   TIME STEP   18
 
 SOLVING FOR HEAD 
                                                   Max.-Head-Change                         Max.-Flux-Residual
  Residual-Control   Outer-Iter.   Inner-Iter.     Column Row Layer    Maximum-Head-Change  Column Row Layer    Maximum-Flux-Residual          L2-NORM 
          0                 1           2             4    7     1       0.5962104246E-01       4    7    1         0.3138384972E+01      0.6413450532E+01
          0                 2           2             4    7     1      -0.5799563990E-02       4    7    1        -0.3138427254E+00      0.6413462990E+00
          0                 3           2             4    7     1       0.3949281980E-03       4    7    1         0.2196896027E-01      0.4489413349E-01
          0                 4           1             4    7     1      -0.1571456574E-04       4    7    1        -0.8985319209E-03      0.1836165644E-02

    ------------------------------------------------
       NWT REQUIRED            4 OUTER ITERATIONS 
       AND A TOTAL OF          7 INNER ITERATIONS.
    ------------------------------------------------

 NO OUTPUT CONTROL FOR STRESS PERIOD   47   TIME STEP   19
 
 SOLVING FOR HEAD 
                                                   Max.-Head-Change                         Max.-Flux-Residual
  Residual-Control   Outer-Iter.   Inner-Iter.     Column Row Layer    Maximum-Head-Change  Column Row Layer    Maximum-Flux-Residual          L2-NORM 
          0                 1           2             4    7     1       0.5884440154E-01       4    7    1         0.3097703653E+01      0.6318362426E+01
          0                 2           2             4    7     1      -0.5724017106E-02       4    7    1        -0.3097745322E+00      0.6318375332E+00
          0                 3           2             4    7     1       0.3897837437E-03       4    7    1         0.2168418719E-01      0.4422850900E-01
          0                 4           1             4    7     1      -0.1550986288E-04       4    7    1        -0.8868846767E-03      0.1808938749E-02

    ------------------------------------------------
       NWT REQUIRED            4 OUTER ITERATIONS 
       AND A TOTAL OF          7 INNER ITERATIONS.
    ------------------------------------------------

 NO OUTPUT CONTROL FOR STRESS PERIOD   47   TIME STEP   20
 
 SOLVING FOR HEAD 
                                                   Max.-Head-Change                         Max.-Flux-Residual
  Residual-Control   Outer-Iter.   Inner-Iter.     Column Row Layer    Maximum-Head-Change  Column Row Layer    Maximum-Flux-Residual          L2-NORM 
          0                 1           2             4    7     1       0.5807447547E-01       4    7    1         0.3057349774E+01      0.6225783217E+01
          0                 2           2             4    7     1      -0.5649123356E-02       4    7    1        -0.3057390804E+00      0.6225796440E+00
          0                 3           2             4    7     1       0.3846837662E-03       4    7    1         0.2140170605E-01      0.4358048135E-01
          0                 4           1             4    7     1      -0.1530692976E-04       4    7    1        -0.8753311708E-03      0.1782440983E-02

    ------------------------------------------------
       NWT REQUIRED            4 OUTER ITERATIONS 
       AND A TOTAL OF          7 INNER ITERATIONS.
    ------------------------------------------------

 NO OUTPUT CONTROL FOR STRESS PERIOD   47   TIME STEP   21
 
 SOLVING FOR HEAD 
                                                   Max.-Head-Change                         Max.-Flux-Residual
  Residual-Control   Outer-Iter.   Inner-Iter.     Column Row Layer    Maximum-Head-Change  Column Row Layer    Maximum-Flux-Residual          L2-NORM 
          0                 1           2             4    7     1       0.5731175273E-01       4    7    1         0.3017351232E+01      0.6135615804E+01
          0                 2           2             4    7     1      -0.5574930263E-02       4    7    1        -0.3017391601E+00      0.6135629283E+00
          0                 3           2             4    7     1       0.3796315012E-03       4    7    1         0.2112171213E-01      0.4294930652E-01
          0                 4           1             4    7     1      -0.1510589555E-04       4    7    1        -0.8638794038E-03      0.1756623429E-02

    ------------------------------------------------
       NWT REQUIRED            4 OUTER ITERATIONS 
       AND A TOTAL OF          7 INNER ITERATIONS.
    ------------------------------------------------

 NO OUTPUT CONTROL FOR STRESS PERIOD   47   TIME STEP   22
 
 SOLVING FOR HEAD 
                                                   Max.-Head-Change                         Max.-Flux-Residual
  Residual-Control   Outer-Iter.   Inner-Iter.     Column Row Layer    Maximum-Head-Change  Column Row Layer    Maximum-Flux-Residual          L2-NORM 
          0                 1           2             4    7     1       0.5655655084E-01       4    7    1         0.2977726148E+01      0.6047766928E+01
          0                 2           2             4    7     1      -0.5501468715E-02       4    7    1        -0.2977765839E+00      0.6047780612E+00
          0                 3           2             4    7     1       0.3746290518E-03       4    7    1         0.2084433232E-01      0.4233437507E-01
          0                 4           1             4    7     1      -0.1490684339E-04       4    7    1        -0.8525345531E-03      0.1731470691E-02

    ------------------------------------------------
       NWT REQUIRED            4 OUTER ITERATIONS 
       AND A TOTAL OF          7 INNER ITERATIONS.
    ------------------------------------------------

 NO OUTPUT CONTROL FOR STRESS PERIOD   47   TIME STEP   23
 
 SOLVING FOR HEAD 
                                                   Max.-Head-Change                         Max.-Flux-Residual
  Residual-Control   Outer-Iter.   Inner-Iter.     Column Row Layer    Maximum-Head-Change  Column Row Layer    Maximum-Flux-Residual          L2-NORM 
          0                 1           2             4    7     1       0.5580901181E-01       4    7    1         0.2938483777E+01      0.5962132663E+01
          0                 2           2             4    7     1      -0.5428752535E-02       4    7    1        -0.2938522776E+00      0.5962146368E+00
          0                 3           2             4    7     1       0.3696773594E-03       4    7    1         0.2056963140E-01      0.4173493516E-01
          0                 4           1             4    7     1      -0.1470981079E-04       4    7    1        -0.8412992781E-03      0.1706956316E-02

    ------------------------------------------------
       NWT REQUIRED            4 OUTER ITERATIONS 
       AND A TOTAL OF          7 INNER ITERATIONS.
    ------------------------------------------------

 NO OUTPUT CONTROL FOR STRESS PERIOD   47   TIME STEP   24
 
 SOLVING FOR HEAD 
                                                   Max.-Head-Change                         Max.-Flux-Residual
  Residual-Control   Outer-Iter.   Inner-Iter.     Column Row Layer    Maximum-Head-Change  Column Row Layer    Maximum-Flux-Residual          L2-NORM 
          0                 1           2             4    7     1       0.5506952237E-01       4    7    1         0.2899645900E+01      0.5878637532E+01
          0                 2           2             4    7     1      -0.5356819344E-02       4    7    1        -0.2899684195E+00      0.5878651234E+00
          0                 3           2             4    7     1       0.3647789860E-03       4    7    1         0.2029776190E-01      0.4115046623E-01
          0                 4           1             4    7     1      -0.1451489976E-04       4    7    1        -0.8301797832E-03      0.1683053346E-02

    ------------------------------------------------
       NWT REQUIRED            4 OUTER ITERATIONS 
       AND A TOTAL OF          7 INNER ITERATIONS.
    ------------------------------------------------

 NO OUTPUT CONTROL FOR STRESS PERIOD   47   TIME STEP   25
 
 SOLVING FOR HEAD 
                                                   Max.-Head-Change                         Max.-Flux-Residual
  Residual-Control   Outer-Iter.   Inner-Iter.     Column Row Layer    Maximum-Head-Change  Column Row Layer    Maximum-Flux-Residual          L2-NORM 
          0                 1           2             4    7     1       0.5433842857E-01       4    7    1         0.2861232570E+01      0.5797196584E+01
          0                 2           2             4    7     1      -0.5285702807E-02       4    7    1        -0.2861270154E+00      0.5797210254E+00
          0                 3           2             4    7     1       0.3599362238E-03       4    7    1         0.2002886417E-01      0.4058039342E-01
          0                 4           1             4    7     1      -0.1432220183E-04       4    7    1        -0.8191818540E-03      0.1659740571E-02

    ------------------------------------------------
       NWT REQUIRED            4 OUTER ITERATIONS 
       AND A TOTAL OF          7 INNER ITERATIONS.
    ------------------------------------------------

 NO OUTPUT CONTROL FOR STRESS PERIOD   47   TIME STEP   26
 
 SOLVING FOR HEAD 
                                                   Max.-Head-Change                         Max.-Flux-Residual
  Residual-Control   Outer-Iter.   Inner-Iter.     Column Row Layer    Maximum-Head-Change  Column Row Layer    Maximum-Flux-Residual          L2-NORM 
          0                 1           2             4    7     1       0.5361564347E-01       4    7    1         0.2823240100E+01      0.5717725726E+01
          0                 2           2             4    7     1      -0.5215394471E-02       4    7    1        -0.2823276966E+00      0.5717739529E+00
          0                 3           2             4    7     1       0.3551484968E-03       4    7    1         0.1976291242E-01      0.4002411562E-01
          0                 4           1             4    7     1      -0.1413169351E-04       4    7    1        -0.8083043977E-03      0.1636981745E-02

    ------------------------------------------------
       NWT REQUIRED            4 OUTER ITERATIONS 
       AND A TOTAL OF          7 INNER ITERATIONS.
    ------------------------------------------------

 NO OUTPUT CONTROL FOR STRESS PERIOD   47   TIME STEP   27
 
 SOLVING FOR HEAD 
                                                   Max.-Head-Change                         Max.-Flux-Residual
  Residual-Control   Outer-Iter.   Inner-Iter.     Column Row Layer    Maximum-Head-Change  Column Row Layer    Maximum-Flux-Residual          L2-NORM 
          0                 1           2             4    7     1       0.5290159529E-01       4    7    1         0.2785692825E+01      0.5640159385E+01
          0                 2           2             4    7     1      -0.5145935995E-02       4    7    1        -0.2785728970E+00      0.5640172834E+00
          0                 3           2             4    7     1       0.3504186427E-03       4    7    1         0.1950007702E-01      0.3948112472E-01
          0                 4           1             4    7     1      -0.1394348821E-04       4    7    1        -0.7975544202E-03      0.1614768137E-02

    ------------------------------------------------
       NWT REQUIRED            4 OUTER ITERATIONS 
       AND A TOTAL OF          7 INNER ITERATIONS.
    ------------------------------------------------

 NO OUTPUT CONTROL FOR STRESS PERIOD   47   TIME STEP   28
 
 SOLVING FOR HEAD 
                                                   Max.-Head-Change                         Max.-Flux-Residual
  Residual-Control   Outer-Iter.   Inner-Iter.     Column Row Layer    Maximum-Head-Change  Column Row Layer    Maximum-Flux-Residual          L2-NORM 
          0                 1           2             4    7     1       0.5219628419E-01       4    7    1         0.2748591315E+01      0.5564431722E+01
          0                 2           2             4    7     1      -0.5077327395E-02       4    7    1        -0.2748626738E+00      0.5564445142E+00
          0                 3           2             4    7     1       0.3457466618E-03       4    7    1         0.1924036196E-01      0.3895104496E-01
          0                 4           1             4    7     1      -0.1375758580E-04       4    7    1        -0.7869320618E-03      0.1593097157E-02

    ------------------------------------------------
       NWT REQUIRED            4 OUTER ITERATIONS 
       AND A TOTAL OF          7 INNER ITERATIONS.
    ------------------------------------------------

 NO OUTPUT CONTROL FOR STRESS PERIOD   47   TIME STEP   29
 
 SOLVING FOR HEAD 
                                                   Max.-Head-Change                         Max.-Flux-Residual
  Residual-Control   Outer-Iter.   Inner-Iter.     Column Row Layer    Maximum-Head-Change  Column Row Layer    Maximum-Flux-Residual          L2-NORM 
          0                 1           2             4    7     1       0.5149981244E-01       4    7    1         0.2711942789E+01      0.5491141102E+01
          0                 2           2             4    7     1      -0.5009578623E-02       4    7    1        -0.2711977490E+00      0.5491149438E+00
          0                 3           2             4    7     1       0.3411332319E-03       4    7    1         0.1898381780E-01      0.3843791451E-01
          0                 4           1             4    7     1      -0.1357401277E-04       4    7    1        -0.7764393774E-03      0.1572109125E-02

    ------------------------------------------------
       NWT REQUIRED            4 OUTER ITERATIONS 
       AND A TOTAL OF          7 INNER ITERATIONS.
    ------------------------------------------------

 NO OUTPUT CONTROL FOR STRESS PERIOD   47   TIME STEP   30



 STREAM LISTING     PERIOD     47   STEP       30

 LAYER ROW COL. STREAM  RCH.  FLOW INTO     FLOW TO   FLOW OUT OF   OVRLND.     DIRECT     STREAM       STREAM     STREAM     STREAM   STREAMBED  STREAMBED
                SEG.NO.  NO.  STRM. RCH.    AQUIFER    STRM. RCH.    RUNOFF     PRECIP       ET          HEAD       DEPTH      WIDTH   CONDCTNC.   GRADIENT

   1    1    1     1     1    7.9710E+00  1.2901E-01   7.8420E+00  0.000E+00  0.000E+00  0.000E+00  1.09388E+03  8.328E-01  7.480E+00  3.366E-02  1.278E+00
   1    2    2     1     2    7.8420E+00  1.9811E-01   7.6439E+00  0.000E+00  0.000E+00  0.000E+00  1.08889E+03  8.271E-01  7.395E+00  5.177E-02  1.276E+00
   1    3    3     1     3    7.6439E+00  1.6733E-01   7.4765E+00  0.000E+00  0.000E+00  0.000E+00  1.08324E+03  8.206E-01  7.300E+00  4.380E-02  1.274E+00
   1    3    4     1     4    7.4765E+00  1.5276E-01   7.3238E+00  0.000E+00  0.000E+00  0.000E+00  1.07822E+03  8.148E-01  7.215E+00  4.004E-02  1.272E+00
   1    4    5     2     1    5.3238E+00  2.7067E-01   5.0531E+00  0.000E+00  0.000E+00  0.000E+00  1.07240E+03  4.701E-01  1.200E+01  7.800E-02  1.157E+00
   1    5    6     2     2    5.0531E+00  2.0742E-01   4.8457E+00  0.000E+00  0.000E+00  0.000E+00  1.06697E+03  4.570E-01  1.200E+01  6.000E-02  1.152E+00
   1    6    6     2     3    4.8457E+00  2.0672E-01   4.6390E+00  0.000E+00  0.000E+00  0.000E+00  1.06224E+03  4.454E-01  1.200E+01  6.000E-02  1.148E+00
   1    7    6     2     4    4.6390E+00  2.0602E-01   4.4330E+00  0.000E+00  0.000E+00  0.000E+00  1.05751E+03  4.337E-01  1.200E+01  6.000E-02  1.145E+00
   1    8    6     2     5    4.4330E+00  2.0530E-01   4.2276E+00  0.000E+00  0.000E+00  0.000E+00  1.05278E+03  4.218E-01  1.200E+01  6.000E-02  1.141E+00
   1    3    5     3     1    2.0000E+00  2.8252E-01   1.7175E+00  0.000E+00  0.000E+00  0.000E+00  1.07555E+03  1.909E+00  9.636E+00  7.227E-02  1.955E+00
   1    3    6     3     2    1.7175E+00  2.4905E-01   1.4684E+00  0.000E+00  0.000E+00  0.000E+00  1.07264E+03  1.727E+00  8.909E+00  6.682E-02  1.864E+00
   1    3    7     3     3    1.4684E+00  1.9718E-01   1.2712E+00  0.000E+00  0.000E+00  0.000E+00  1.06987E+03  1.555E+00  8.218E+00  5.547E-02  1.777E+00
   1    4    8     3     4    1.2712E+00  2.2567E-01   1.0456E+00  0.000E+00  0.000E+00  0.000E+00  1.06682E+03  1.364E+00  7.455E+00  6.709E-02  1.682E+00
   1    5    8     3     5    1.0456E+00  1.5790E-01   8.8768E-01  0.000E+00  0.000E+00  0.000E+00  1.06362E+03  1.164E+00  6.655E+00  4.991E-02  1.582E+00
   1    6    8     3     6    8.8768E-01  5.5980E-02   8.3170E-01  0.000E+00  0.000E+00  0.000E+00  1.06158E+03  1.036E+00  6.145E+00  1.844E-02  1.518E+00
   1    5   10     4     1    1.0000E+01  9.0919E-02   9.9091E+00  0.000E+00  0.000E+00  0.000E+00  1.07836E+03  6.368E-01  1.000E+01  2.500E-02  1.212E+00
   1    5    9     4     2    9.9091E+00  1.8158E-01   9.7275E+00  0.000E+00  0.000E+00  0.000E+00  1.07154E+03  6.315E-01  1.000E+01  5.000E-02  1.211E+00
   1    6    8     4     3    9.7275E+00  1.2689E-01   9.6006E+00  0.000E+00  0.000E+00  0.000E+00  1.06381E+03  6.256E-01  1.000E+01  3.500E-02  1.209E+00
   1    6    8     5     1    1.0432E+01  2.2686E-01   1.0205E+01  0.000E+00  0.000E+00  0.000E+00  1.05868E+03  6.790E-01  1.542E+01  6.166E-02  1.226E+00
   1    7    7     5     2    1.0205E+01  2.7894E-01   9.9265E+00  0.000E+00  0.000E+00  0.000E+00  1.05417E+03  6.732E-01  1.519E+01  7.594E-02  1.224E+00
   1    8    7     5     3    9.9265E+00  1.9221E-01   9.7343E+00  0.000E+00  0.000E+00  0.000E+00  1.04992E+03  6.676E-01  1.497E+01  5.241E-02  1.223E+00
   1    8    6     5     4    9.7343E+00  1.3577E-01   9.5985E+00  0.000E+00  0.000E+00  0.000E+00  1.04691E+03  6.637E-01  1.482E+01  3.706E-02  1.221E+00
   1    9    6     6     1    1.3826E+01  2.3109E-01   1.3595E+01  0.000E+00  0.000E+00  0.000E+00  1.04358E+03  8.515E-01  1.200E+01  6.000E-02  1.284E+00
   1   10    7     6     2    1.3595E+01  2.3057E-01   1.3365E+01  0.000E+00  0.000E+00  0.000E+00  1.03902E+03  8.429E-01  1.200E+01  6.000E-02  1.281E+00
   1   11    7     6     3    1.3365E+01  2.3005E-01   1.3134E+01  0.000E+00  0.000E+00  0.000E+00  1.03447E+03  8.342E-01  1.200E+01  6.000E-02  1.278E+00
   1   12    7     6     4    1.3134E+01  2.2953E-01   1.2905E+01  0.000E+00  0.000E+00  0.000E+00  1.02992E+03  8.255E-01  1.200E+01  6.000E-02  1.275E+00
   1   13    7     6     5    1.2905E+01  1.0066E-02   1.2895E+01  0.000E+00  0.000E+00  0.000E+00  1.02673E+03  8.210E-01  1.200E+01  2.400E-02  1.398E-01
   1   14    9     7     1    1.5000E+02  1.4154E+00   1.4858E+02  0.000E+00  0.000E+00  0.000E+00  1.03987E+03  2.288E+00  5.529E+01  5.593E-01  8.436E-01
   1   13    8     7     2    1.4858E+02  2.0844E+00   1.4650E+02  0.000E+00  0.000E+00  0.000E+00  1.03478E+03  2.278E+00  5.525E+01  6.147E-01  1.130E+00
   1   13    7     7     3    1.4650E+02  1.8850E+00   1.4462E+02  0.000E+00  0.000E+00  0.000E+00  1.02969E+03  2.268E+00  5.520E+01  5.583E-01  1.125E+00
   1   13    6     8     1    1.5751E+02  1.2490E+00   1.5626E+02  0.000E+00  0.000E+00  0.000E+00  1.02474E+03  2.865E+00  4.154E+01  4.233E-01  9.836E-01
   1   13    5     8     2    1.5626E+02  4.8722E-01   1.5577E+02  0.000E+00  0.000E+00  0.000E+00  1.01848E+03  2.859E+00  4.145E+01  4.224E-01  3.845E-01
   1   13    4     8     3    1.5577E+02 -1.3620E+00   1.5714E+02  0.000E+00  0.000E+00  0.000E+00  1.01224E+03  2.862E+00  4.149E+01  4.228E+00 -1.074E-01
   1   13    3     8     4    1.5714E+02 -3.1254E+00   1.6026E+02  0.000E+00  0.000E+00  0.000E+00  1.00600E+03  2.877E+00  4.172E+01  4.251E+00 -2.451E-01
   1   13    2     8     5    1.6026E+02 -2.4574E+00   1.6272E+02  0.000E+00  0.000E+00  0.000E+00  9.99771E+02  2.896E+00  4.199E+01  4.279E+00 -1.914E-01
   1   13    1     8     6    1.6272E+02 -1.9589E+00   1.6468E+02  0.000E+00  0.000E+00  0.000E+00  9.94786E+02  2.911E+00  4.220E+01  2.580E+00 -2.530E-01
   1    8    6     9     1    0.0000E+00  0.0000E+00   0.0000E+00  0.000E+00  0.000E+00  0.000E+00  1.07875E+03  0.000E+00  4.000E+00  0.000E+00  1.000E+00
   1    8    5     9     2    0.0000E+00  0.0000E+00   0.0000E+00  0.000E+00  0.000E+00  0.000E+00  1.07825E+03  0.000E+00  4.000E+00  0.000E+00  1.000E+00





UNSATURATED ZONE PACKAGE VOLUMETRIC BUDGET FOR  TIME STEP    30 STRESS PERIOD   47
  ------------------------------------------------------------------------------



     CUMULATIVE VOLUMES      L**3       RATES FOR THIS TIME STEP      L**3/T
     ------------------                 ------------------------

           IN:                                      IN:
           ---                                      ---
        INFILTRATION =  1702380653.2028          INFILTRATION =           1.5675

          OUT:                                     OUT:
          ----                                     ----
              UZF ET =  1701555088.2296                UZF ET =           1.5675
        UZF RECHARGE =       73224.0000          UZF RECHARGE =       0.0000E+00

            IN - OUT =      752340.9732              IN - OUT =       0.0000E+00

          STORAGE:                                 STORAGE:
          --------                                 --------
      STORAGE CHANGE =      752341.1305        STORAGE CHANGE =       2.4899E-16

 PERCENT DISCREPANCY IS DIFFERENCE BETWEEN IN-OUT MINUS CHANGE IN STORAGE
 DIVIDED BY THE AVERAGE OF IN AND OUT TIMES 100

 PERCENT DISCREPANCY =           0.00     PERCENT DISCREPANCY =           0.00






1
  VOLUMETRIC BUDGET FOR AGRICULTURAL FIELDS AT  END OF TIME STEP   30, STRESS PERIOD  47
  ------------------------------------------------------------------------------

     CUMULATIVE VOLUMES      L**3       RATES FOR THIS TIME STEP      L**3/T
     ------------------                 ------------------------

           IN:                                      IN:
           ---                                      ---
               AG WELLS  =  1599775104.0000                 AG WELLS  =           0.7200
      DIVERSION SEGMENTS =           0.0000        DIVERSION SEGMENTS =           0.0000
       IRRIGATION PONDS  =           0.0000         IRRIGATION PONDS  =           0.0000
           GW IRRIGATION =           0.0000             GW IRRIGATION =           0.0000
           SW IRRIGATION =           0.0000             SW IRRIGATION =           0.0000
        SYSTEM LOSSES GW =           0.0000          SYSTEM LOSSES GW =           0.0000
        SYSTEM LOSSES SW =           0.0000          SYSTEM LOSSES SW =           0.0000

                TOTAL IN =  1599775104.0000                  TOTAL IN =           0.7200

          OUT:                                     OUT:
          ----                                     ----
               AG WELLS  =           0.0000                 AG WELLS  =           0.0000
      DIVERSION SEGMENTS =           0.0000        DIVERSION SEGMENTS =           0.0000
       IRRIGATION PONDS  =           0.0000         IRRIGATION PONDS  =           0.0000
           GW IRRIGATION =  1599775104.0000             GW IRRIGATION =           0.7200
           SW IRRIGATION =           0.0000             SW IRRIGATION =           0.0000
        SYSTEM LOSSES GW =           0.0000          SYSTEM LOSSES GW =           0.0000
        SYSTEM LOSSES SW =           0.0000          SYSTEM LOSSES SW =           0.0000

               TOTAL OUT =  1599775104.0000                 TOTAL OUT =           0.7200

                IN - OUT =           0.0000                  IN - OUT =           0.0000

     PERCENT DISCREPANCY =           0.00         PERCENT DISCREPANCY =           0.00



1
  VOLUMETRIC BUDGET FOR ENTIRE MODEL AT END OF TIME STEP   30, STRESS PERIOD  47
  ------------------------------------------------------------------------------

     CUMULATIVE VOLUMES      L**3       RATES FOR THIS TIME STEP      L**3/T
     ------------------                 ------------------------

           IN:                                      IN:
           ---                                      ---
             STORAGE     =  2082331904.0000               STORAGE     =          12.0644
       CONSTANT HEAD     =           0.0000         CONSTANT HEAD     =           0.0000
     HEAD DEP BOUNDS     =    34983328.0000       HEAD DEP BOUNDS     =           0.2912
      STREAM LEAKAGE     =  1475118592.0000        STREAM LEAKAGE     =          12.1972
        UZF RECHARGE     =       73223.9531          UZF RECHARGE     =           0.0000
               GW ET     =           0.0000                 GW ET     =           0.0000
     SURFACE LEAKAGE     =           0.0000       SURFACE LEAKAGE     =           0.0000
           AG WELLS      =           0.0000             AG WELLS      =           0.0000

                TOTAL IN =  3592506880.0000                  TOTAL IN =          24.5527

          OUT:                                     OUT:
          ----                                     ----
             STORAGE     =   795276352.0000               STORAGE     =          14.6423
       CONSTANT HEAD     =           0.0000         CONSTANT HEAD     =           0.0000
     HEAD DEP BOUNDS     =    34952664.0000       HEAD DEP BOUNDS     =           0.2867
      STREAM LEAKAGE     =  1162516352.0000        STREAM LEAKAGE     =           8.9037
        UZF RECHARGE     =           0.0000          UZF RECHARGE     =           0.0000
               GW ET     =           0.0000                 GW ET     =           0.0000
     SURFACE LEAKAGE     =           0.0000       SURFACE LEAKAGE     =           0.0000
           AG WELLS      =  1599775104.0000             AG WELLS      =           0.7200

               TOTAL OUT =  3592520448.0000                 TOTAL OUT =          24.5527

                IN - OUT =      -13568.0000                  IN - OUT =       1.3351E-05

     PERCENT DISCREPANCY =          -0.00         PERCENT DISCREPANCY =           0.00






         TIME SUMMARY AT END OF TIME STEP   30 IN STRESS PERIOD   47
                    SECONDS     MINUTES      HOURS       DAYS        YEARS
                    -----------------------------------------------------------
   TIME STEP LENGTH  87667.      1461.1      24.352      1.0147     2.77799E-03
 STRESS PERIOD TIME 2.63000E+06  43833.      730.56      30.440     8.33397E-02
         TOTAL TIME 1.21065E+08 2.01775E+06  33629.      1401.2      3.8363    
1
1
                            STRESS PERIOD NO.   48, LENGTH =   2630000.    
                            -----------------------------------------------

                              NUMBER OF TIME STEPS =    30

                               MULTIPLIER FOR DELT =     1.000

                            INITIAL TIME STEP SIZE =   87666.66    

 REUSING NON-PARAMETER GHB CELLS FROM LAST STRESS PERIOD

      2 GHB CELLS

 REUSING STREAM SEGMENT DATA FROM LAST STRESS PERIOD



            AREAL INFILTRATION RATE
 READING ON UNIT   19 WITH FORMAT: (FREE)              

            1           2           3           4           5           6           7           8           9          10
 ........................................................................................................................
   1   1.0000E-10  2.0000E-10   0.000       0.000       0.000       0.000       0.000       0.000       0.000       0.000    
   2   2.0000E-10  1.0000E-10  2.0000E-10   0.000       0.000      8.0000E-10  8.0000E-10  5.0000E-10   0.000       0.000    
   3    0.000      5.0000E-10  1.0000E-10  1.0000E-10  8.0000E-10  8.0000E-10  5.0000E-10  5.0000E-10   0.000       0.000    
   4   8.0000E-10  5.0000E-10  1.0000E-10  1.0000E-10  1.0000E-10  1.0000E-10  1.0000E-10  1.0000E-10  2.0000E-10   0.000    
   5   8.0000E-10  5.0000E-10  1.0000E-10  1.0000E-10  1.0000E-10  1.0000E-10  1.0000E-10  1.0000E-10  1.0000E-10  1.0000E-10
   6   8.0000E-10  5.0000E-10  5.0000E-10  2.0000E-10  2.0000E-10  1.0000E-10  1.0000E-10  1.0000E-10  1.0000E-10  5.0000E-10
   7   8.0000E-10  5.0000E-10  5.0000E-10  2.0000E-10  2.0000E-10  1.0000E-10  1.0000E-10  2.0000E-10  2.0000E-10   0.000    
   8    0.000      5.0000E-10  5.0000E-10  2.0000E-10  2.0000E-10  1.0000E-10  1.0000E-10  2.0000E-10  5.0000E-10   0.000    
   9    0.000      5.0000E-10  5.0000E-10  2.0000E-10  2.0000E-10  1.0000E-10  1.0000E-10  2.0000E-10  5.0000E-10   0.000    
  10    0.000      5.0000E-10  5.0000E-10  2.0000E-10  2.0000E-10  1.0000E-10  1.0000E-10  2.0000E-10  5.0000E-10  8.0000E-10
  11    0.000      1.0000E-10  1.0000E-10  1.0000E-10  1.0000E-10  1.0000E-10  1.0000E-10  2.0000E-10  5.0000E-10   0.000    
  12   1.0000E-10  1.0000E-10  1.0000E-10  1.0000E-10  1.0000E-10  1.0000E-10  1.0000E-10  1.0000E-10  2.0000E-10   0.000    
  13   1.0000E-10  1.0000E-10  2.0000E-10  2.0000E-10  2.0000E-10  2.0000E-10  2.0000E-10  1.0000E-10  1.0000E-10   0.000    
  14    0.000      2.0000E-10  5.0000E-10  5.0000E-10  5.0000E-10  5.0000E-10  5.0000E-10  2.0000E-10  1.0000E-10   0.000    
  15    0.000       0.000      8.0000E-10  8.0000E-10  8.0000E-10  8.0000E-10   0.000       0.000       0.000       0.000    

                  ET RATE =  5.000000E-10

 USING ET EXTINCTION DEPTH FROM PREVIOUS STRESS PERIOD. CURRENT PERIOD IS:      48

 USING EXTINCTION WATER CONTENT FROM PREVIOUS STRESS PERIOD. CURRENT PERIOD IS:      48

 USING AIR ENTRY PRESSURE FROM PREVIOUS STRESS PERIOD. CURRENT PERIOD IS:      48

 USING ROOT PRESSURE HEAD FROM PREVIOUS STRESS PERIOD. CURRENT PERIOD IS:      48

 USING ROOT ACTIVITY FROM PREVIOUS STRESS PERIOD. CURRENT PERIOD IS:      48

 PROCESSING AG STRESS PERIOD DATA

 READING AG STRESS PERIOD DATA

 READING IRRIGATION SEGMENT

 READING IRRIGATION WELL

 READING SUPPLEMENTAL WELL

 NO IRRPOND OR REUSING IRRPOND DATA FROM LAST STRESS PERIOD

 END PROCESSING AG STRESS PERIOD DATA OPTIONS
 
 SOLVING FOR HEAD 
                                                   Max.-Head-Change                         Max.-Flux-Residual
  Residual-Control   Outer-Iter.   Inner-Iter.     Column Row Layer    Maximum-Head-Change  Column Row Layer    Maximum-Flux-Residual          L2-NORM 
          0                 1           2             4    7     1       0.5311132180E-01       4    7    1         0.2795759762E+01      0.5691505332E+01
          0                 2           2             4    7     1      -0.5166336862E-02       4    7    1        -0.2795796016E+00      0.5691514945E+00
          0                 3           2             4    7     1       0.3518078638E-03       4    7    1         0.1957054626E-01      0.3984046891E-01
          0                 4           1             4    7     1      -0.1399876649E-04       4    7    1        -0.8004365986E-03      0.1629469773E-02

    ------------------------------------------------
       NWT REQUIRED            4 OUTER ITERATIONS 
       AND A TOTAL OF          7 INNER ITERATIONS.
    ------------------------------------------------

 NO OUTPUT CONTROL FOR STRESS PERIOD   48   TIME STEP    1
 
 SOLVING FOR HEAD 
                                                   Max.-Head-Change                         Max.-Flux-Residual
  Residual-Control   Outer-Iter.   Inner-Iter.     Column Row Layer    Maximum-Head-Change  Column Row Layer    Maximum-Flux-Residual          L2-NORM 
          0                 1           2             4    7     1       0.5242134195E-01       4    7    1         0.2759489074E+01      0.5616546761E+01
          0                 2           2             4    7     1      -0.5099219615E-02       4    7    1        -0.2759524633E+00      0.5616556552E+00
          0                 3           2             4    7     1       0.3472374388E-03       4    7    1         0.1931664715E-01      0.3931577699E-01
          0                 4           1             4    7     1      -0.1381690506E-04       4    7    1        -0.7900521248E-03      0.1608017427E-02

    ------------------------------------------------
       NWT REQUIRED            4 OUTER ITERATIONS 
       AND A TOTAL OF          7 INNER ITERATIONS.
    ------------------------------------------------

 NO OUTPUT CONTROL FOR STRESS PERIOD   48   TIME STEP    2
 
 SOLVING FOR HEAD 
                                                   Max.-Head-Change                         Max.-Flux-Residual
  Residual-Control   Outer-Iter.   Inner-Iter.     Column Row Layer    Maximum-Head-Change  Column Row Layer    Maximum-Flux-Residual          L2-NORM 
          0                 1           2             4    7     1       0.5173967325E-01       4    7    1         0.2723642654E+01      0.5543351853E+01
          0                 2           2             4    7     1      -0.5032910814E-02       4    7    1        -0.2723677517E+00      0.5543361820E+00
          0                 3           2             4    7     1       0.3427220652E-03       4    7    1         0.1906571787E-01      0.3880340977E-01
          0                 4           1             4    7     1      -0.1363723428E-04       4    7    1        -0.7797891142E-03      0.1587059690E-02

    ------------------------------------------------
       NWT REQUIRED            4 OUTER ITERATIONS 
       AND A TOTAL OF          7 INNER ITERATIONS.
    ------------------------------------------------

 NO OUTPUT CONTROL FOR STRESS PERIOD   48   TIME STEP    3
 
 SOLVING FOR HEAD 
                                                   Max.-Head-Change                         Max.-Flux-Residual
  Residual-Control   Outer-Iter.   Inner-Iter.     Column Row Layer    Maximum-Head-Change  Column Row Layer    Maximum-Flux-Residual          L2-NORM 
          0                 1           2             4    7     1       0.5106642007E-01       4    7    1         0.2688227137E+01      0.5471846865E+01
          0                 2           2             4    7     1      -0.4967420613E-02       4    7    1        -0.2688261304E+00      0.5471857084E+00
          0                 3           2             4    7     1       0.3382624350E-03       4    7    1         0.1881780492E-01      0.3830289353E-01
          0                 4           1             4    7     1      -0.1345978144E-04       4    7    1        -0.7696494504E-03      0.1566589746E-02

    ------------------------------------------------
       NWT REQUIRED            4 OUTER ITERATIONS 
       AND A TOTAL OF          7 INNER ITERATIONS.
    ------------------------------------------------

 NO OUTPUT CONTROL FOR STRESS PERIOD   48   TIME STEP    4
 
 SOLVING FOR HEAD 
                                                   Max.-Head-Change                         Max.-Flux-Residual
  Residual-Control   Outer-Iter.   Inner-Iter.     Column Row Layer    Maximum-Head-Change  Column Row Layer    Maximum-Flux-Residual          L2-NORM 
          0                 1           2             4    7     1       0.5040153246E-01       4    7    1         0.2653240717E+01      0.5401967569E+01
          0                 2           2             4    7     1      -0.4902744156E-02       4    7    1        -0.2653274189E+00      0.5401977746E+00
          0                 3           2             4    7     1       0.3338582181E-03       4    7    1         0.1857289568E-01      0.3781373024E-01
          0                 4           1             4    7     1      -0.1328453317E-04       4    7    1        -0.7596326350E-03      0.1546573939E-02

    ------------------------------------------------
       NWT REQUIRED            4 OUTER ITERATIONS 
       AND A TOTAL OF          7 INNER ITERATIONS.
    ------------------------------------------------

 NO OUTPUT CONTROL FOR STRESS PERIOD   48   TIME STEP    5
 
 SOLVING FOR HEAD 
                                                   Max.-Head-Change                         Max.-Flux-Residual
  Residual-Control   Outer-Iter.   Inner-Iter.     Column Row Layer    Maximum-Head-Change  Column Row Layer    Maximum-Flux-Residual          L2-NORM 
          0                 1           2             4    7     1       0.4974534758E-01       4    7    1         0.2618702456E+01      0.5333673342E+01
          0                 2           2             4    7     1      -0.4838914243E-02       4    7    1        -0.2618735238E+00      0.5333683623E+00
          0                 3           2             4    7     1       0.3295116474E-03       4    7    1         0.1833112355E-01      0.3733568908E-01
          0                 4           1             4    7     1      -0.1311157904E-04       4    7    1        -0.7497441393E-03      0.1527028817E-02

    ------------------------------------------------
       NWT REQUIRED            4 OUTER ITERATIONS 
       AND A TOTAL OF          7 INNER ITERATIONS.
    ------------------------------------------------

 NO OUTPUT CONTROL FOR STRESS PERIOD   48   TIME STEP    6
 
 SOLVING FOR HEAD 
                                                   Max.-Head-Change                         Max.-Flux-Residual
  Residual-Control   Outer-Iter.   Inner-Iter.     Column Row Layer    Maximum-Head-Change  Column Row Layer    Maximum-Flux-Residual          L2-NORM 
          0                 1           2             4    7     1       0.4909777913E-01       4    7    1         0.2584608184E+01      0.5266901502E+01
          0                 2           2             4    7     1      -0.4775922479E-02       4    7    1        -0.2584640279E+00      0.5266911420E+00
          0                 3           2             4    7     1       0.3252221517E-03       4    7    1         0.1809245940E-01      0.3686825940E-01
          0                 4           1             4    7     1      -0.1294089593E-04       4    7    1        -0.7399827496E-03      0.1507903862E-02

    ------------------------------------------------
       NWT REQUIRED            4 OUTER ITERATIONS 
       AND A TOTAL OF          7 INNER ITERATIONS.
    ------------------------------------------------

 NO OUTPUT CONTROL FOR STRESS PERIOD   48   TIME STEP    7
 
 SOLVING FOR HEAD 
                                                   Max.-Head-Change                         Max.-Flux-Residual
  Residual-Control   Outer-Iter.   Inner-Iter.     Column Row Layer    Maximum-Head-Change  Column Row Layer    Maximum-Flux-Residual          L2-NORM 
          0                 1           2             4    7     1       0.4845886625E-01       4    7    1         0.2550960645E+01      0.5201604956E+01
          0                 2           2             4    7     1      -0.4713772674E-02       4    7    1        -0.2550992058E+00      0.5201615035E+00
          0                 3           2             4    7     1       0.3209899904E-03       4    7    1         0.1785692238E-01      0.3641121491E-01
          0                 4           1             4    7     1      -0.1277249430E-04       4    7    1        -0.7303492862E-03      0.1489215181E-02

    ------------------------------------------------
       NWT REQUIRED            4 OUTER ITERATIONS 
       AND A TOTAL OF          7 INNER ITERATIONS.
    ------------------------------------------------

 NO OUTPUT CONTROL FOR STRESS PERIOD   48   TIME STEP    8
 
 SOLVING FOR HEAD 
                                                   Max.-Head-Change                         Max.-Flux-Residual
  Residual-Control   Outer-Iter.   Inner-Iter.     Column Row Layer    Maximum-Head-Change  Column Row Layer    Maximum-Flux-Residual          L2-NORM 
          0                 1           2             4    7     1       0.4782875646E-01       4    7    1         0.2517769088E+01      0.5137727653E+01
          0                 2           2             4    7     1      -0.4652479178E-02       4    7    1        -0.2517799826E+00      0.5137737666E+00
          0                 3           2             4    7     1       0.3168161401E-03       4    7    1         0.1762457730E-01      0.3596406505E-01
          0                 4           1             4    7     1      -0.1260641283E-04       4    7    1        -0.7208463471E-03      0.1470934396E-02

    ------------------------------------------------
       NWT REQUIRED            4 OUTER ITERATIONS 
       AND A TOTAL OF          7 INNER ITERATIONS.
    ------------------------------------------------

 NO OUTPUT CONTROL FOR STRESS PERIOD   48   TIME STEP    9
 
 SOLVING FOR HEAD 
                                                   Max.-Head-Change                         Max.-Flux-Residual
  Residual-Control   Outer-Iter.   Inner-Iter.     Column Row Layer    Maximum-Head-Change  Column Row Layer    Maximum-Flux-Residual          L2-NORM 
          0                 1           2             4    7     1       0.4720732516E-01       4    7    1         0.2485026723E+01      0.5075234130E+01
          0                 2           2             4    7     1      -0.4592029874E-02       4    7    1        -0.2485056792E+00      0.5075243846E+00
          0                 3           2             4    7     1       0.3126997762E-03       4    7    1         0.1739537659E-01      0.3552661712E-01
          0                 4           1             4    7     1      -0.1244261849E-04       4    7    1        -0.7114720158E-03      0.1453033217E-02

    ------------------------------------------------
       NWT REQUIRED            4 OUTER ITERATIONS 
       AND A TOTAL OF          7 INNER ITERATIONS.
    ------------------------------------------------

 NO OUTPUT CONTROL FOR STRESS PERIOD   48   TIME STEP   10
 
 SOLVING FOR HEAD 
                                                   Max.-Head-Change                         Max.-Flux-Residual
  Residual-Control   Outer-Iter.   Inner-Iter.     Column Row Layer    Maximum-Head-Change  Column Row Layer    Maximum-Flux-Residual          L2-NORM 
          0                 1           2             4    7     1       0.4659469536E-01       4    7    1         0.2452741531E+01      0.5014069135E+01
          0                 2           2             4    7     1      -0.4532436728E-02       4    7    1        -0.2452770940E+00      0.5014078701E+00
          0                 3           2             4    7     1       0.3086417136E-03       4    7    1         0.1716937618E-01      0.3509845770E-01
          0                 4           1             4    7     1      -0.1228114467E-04       4    7    1        -0.7022285943E-03      0.1435531766E-02

    ------------------------------------------------
       NWT REQUIRED            4 OUTER ITERATIONS 
       AND A TOTAL OF          7 INNER ITERATIONS.
    ------------------------------------------------

 NO OUTPUT CONTROL FOR STRESS PERIOD   48   TIME STEP   11
 
 SOLVING FOR HEAD 
                                                   Max.-Head-Change                         Max.-Flux-Residual
  Residual-Control   Outer-Iter.   Inner-Iter.     Column Row Layer    Maximum-Head-Change  Column Row Layer    Maximum-Flux-Residual          L2-NORM 
          0                 1           2             4    7     1       0.4599084662E-01       4    7    1         0.2420912669E+01      0.4954197991E+01
          0                 2           2             4    7     1      -0.4473697751E-02       4    7    1        -0.2420941426E+00      0.4954207360E+00
          0                 3           2             4    7     1       0.3046418167E-03       4    7    1         0.1694657010E-01      0.3467936100E-01
          0                 4           1             4    7     1      -0.1212198525E-04       4    7    1        -0.6931158200E-03      0.1418379581E-02

    ------------------------------------------------
       NWT REQUIRED            4 OUTER ITERATIONS 
       AND A TOTAL OF          7 INNER ITERATIONS.
    ------------------------------------------------

 NO OUTPUT CONTROL FOR STRESS PERIOD   48   TIME STEP   12
 
 SOLVING FOR HEAD 
                                                   Max.-Head-Change                         Max.-Flux-Residual
  Residual-Control   Outer-Iter.   Inner-Iter.     Column Row Layer    Maximum-Head-Change  Column Row Layer    Maximum-Flux-Residual          L2-NORM 
          0                 1           2             4    7     1       0.4539574657E-01       4    7    1         0.2389539079E+01      0.4895578516E+01
          0                 2           2             4    7     1      -0.4415809797E-02       4    7    1        -0.2389567193E+00      0.4895587785E+00
          0                 3           2             4    7     1       0.3006998707E-03       4    7    1         0.1672695098E-01      0.3426903126E-01
          0                 4           1             4    7     1      -0.1196513115E-04       4    7    1        -0.6841333648E-03      0.1401600094E-02

    ------------------------------------------------
       NWT REQUIRED            4 OUTER ITERATIONS 
       AND A TOTAL OF          7 INNER ITERATIONS.
    ------------------------------------------------

 NO OUTPUT CONTROL FOR STRESS PERIOD   48   TIME STEP   13
 
 SOLVING FOR HEAD 
                                                   Max.-Head-Change                         Max.-Flux-Residual
  Residual-Control   Outer-Iter.   Inner-Iter.     Column Row Layer    Maximum-Head-Change  Column Row Layer    Maximum-Flux-Residual          L2-NORM 
          0                 1           2             4    7     1       0.4480935665E-01       4    7    1         0.2358619082E+01      0.4838177224E+01
          0                 2           2             4    7     1      -0.4358769114E-02       4    7    1        -0.2358646563E+00      0.4838186130E+00
          0                 3           2             4    7     1       0.2968156206E-03       4    7    1         0.1651050707E-01      0.3386721338E-01
          0                 4           1             4    7     1      -0.1181057326E-04       4    7    1        -0.6752808049E-03      0.1385164752E-02

    ------------------------------------------------
       NWT REQUIRED            4 OUTER ITERATIONS 
       AND A TOTAL OF          7 INNER ITERATIONS.
    ------------------------------------------------

 NO OUTPUT CONTROL FOR STRESS PERIOD   48   TIME STEP   14
 
 SOLVING FOR HEAD 
                                                   Max.-Head-Change                         Max.-Flux-Residual
  Residual-Control   Outer-Iter.   Inner-Iter.     Column Row Layer    Maximum-Head-Change  Column Row Layer    Maximum-Flux-Residual          L2-NORM 
          0                 1           2             4    7     1       0.4423175934E-01       4    7    1         0.2328157904E+01      0.4781953405E+01
          0                 2           2             4    7     1      -0.4311784340E-02       4    7    1        -0.2334233413E+00      0.4782571127E+00
          0                 3           2             4    7     1       0.2936161137E-03       4    7    1         0.1633961368E-01      0.3347790081E-01
          0                 4           1             4    7     1      -0.1168326229E-04       4    7    1        -0.6682912631E-03      0.1369234021E-02

    ------------------------------------------------
       NWT REQUIRED            4 OUTER ITERATIONS 
       AND A TOTAL OF          7 INNER ITERATIONS.
    ------------------------------------------------

 NO OUTPUT CONTROL FOR STRESS PERIOD   48   TIME STEP   15
 
 SOLVING FOR HEAD 
                                                   Max.-Head-Change                         Max.-Flux-Residual
  Residual-Control   Outer-Iter.   Inner-Iter.     Column Row Layer    Maximum-Head-Change  Column Row Layer    Maximum-Flux-Residual          L2-NORM 
          0                 1           2             4    7     1       0.4363922341E-01       4    7    1         0.2297654955E+01      0.4726818515E+01
          0                 2           2             4    7     1      -0.4244947356E-02       4    7    1        -0.2297682704E+00      0.4726827236E+00
          0                 3           2             4    7     1       0.2890647781E-03       4    7    1         0.1608375962E-01      0.3308771408E-01
          0                 4           1             4    7     1      -0.1150216012E-04       4    7    1        -0.6578268126E-03      0.1353290883E-02

    ------------------------------------------------
       NWT REQUIRED            4 OUTER ITERATIONS 
       AND A TOTAL OF          7 INNER ITERATIONS.
    ------------------------------------------------

 NO OUTPUT CONTROL FOR STRESS PERIOD   48   TIME STEP   16
 
 SOLVING FOR HEAD 
                                                   Max.-Head-Change                         Max.-Flux-Residual
  Residual-Control   Outer-Iter.   Inner-Iter.     Column Row Layer    Maximum-Head-Change  Column Row Layer    Maximum-Flux-Residual          L2-NORM 
          0                 1           2             4    7     1       0.4306572728E-01       4    7    1         0.2267358154E+01      0.4672768904E+01
          0                 2           2             4    7     1      -0.4189160809E-02       4    7    1        -0.2267385215E+00      0.4672777145E+00
          0                 3           2             4    7     1       0.2852659309E-03       4    7    1         0.1587167775E-01      0.3270935995E-01
          0                 4           1             4    7     1      -0.1135100035E-04       4    7    1        -0.6491526462E-03      0.1337811100E-02

    ------------------------------------------------
       NWT REQUIRED            4 OUTER ITERATIONS 
       AND A TOTAL OF          7 INNER ITERATIONS.
    ------------------------------------------------

 NO OUTPUT CONTROL FOR STRESS PERIOD   48   TIME STEP   17
 
 SOLVING FOR HEAD 
                                                   Max.-Head-Change                         Max.-Flux-Residual
  Residual-Control   Outer-Iter.   Inner-Iter.     Column Row Layer    Maximum-Head-Change  Column Row Layer    Maximum-Flux-Residual          L2-NORM 
          0                 1           2             4    7     1       0.4250167632E-01       4    7    1         0.2237558234E+01      0.4619796480E+01
          0                 2           2             4    7     1      -0.4134326326E-02       4    7    1        -0.2237584621E+00      0.4619943165E+00
          0                 3           2             4    7     1       0.2815319154E-03       4    7    1         0.1566307416E-01      0.3233951332E-01
          0                 4           1             4    7     1      -0.1120242012E-04       4    7    1        -0.6406207378E-03      0.1322680131E-02

    ------------------------------------------------
       NWT REQUIRED            4 OUTER ITERATIONS 
       AND A TOTAL OF          7 INNER ITERATIONS.
    ------------------------------------------------

 NO OUTPUT CONTROL FOR STRESS PERIOD   48   TIME STEP   18
 
 SOLVING FOR HEAD 
                                                   Max.-Head-Change                         Max.-Flux-Residual
  Residual-Control   Outer-Iter.   Inner-Iter.     Column Row Layer    Maximum-Head-Change  Column Row Layer    Maximum-Flux-Residual          L2-NORM 
          0                 1           2             4    7     1       0.4194692040E-01       4    7    1         0.2208253475E+01      0.4567857633E+01
          0                 2           2             4    7     1      -0.4080329485E-02       4    7    1        -0.2208279207E+00      0.4567865422E+00
          0                 3           2             4    7     1       0.2778549399E-03       4    7    1         0.1545793678E-01      0.3197497642E-01
          0                 4           1             4    7     1      -0.1105610975E-04       4    7    1        -0.6322306028E-03      0.1307772631E-02

    ------------------------------------------------
       NWT REQUIRED            4 OUTER ITERATIONS 
       AND A TOTAL OF          7 INNER ITERATIONS.
    ------------------------------------------------

 NO OUTPUT CONTROL FOR STRESS PERIOD   48   TIME STEP   19
 
 SOLVING FOR HEAD 
                                                   Max.-Head-Change                         Max.-Flux-Residual
  Residual-Control   Outer-Iter.   Inner-Iter.     Column Row Layer    Maximum-Head-Change  Column Row Layer    Maximum-Flux-Residual          L2-NORM 
          0                 1           2             4    7     1       0.4140142700E-01       4    7    1         0.2179434185E+01      0.4516934040E+01
          0                 2           2             4    7     1      -0.4027266911E-02       4    7    1        -0.2179459278E+00      0.4516941494E+00
          0                 3           2             4    7     1       0.2742415843E-03       4    7    1         0.1525619778E-01      0.3161851461E-01
          0                 4           1             4    7     1      -0.1091233092E-04       4    7    1        -0.6239794639E-03      0.1293204158E-02

    ------------------------------------------------
       NWT REQUIRED            4 OUTER ITERATIONS 
       AND A TOTAL OF          7 INNER ITERATIONS.
    ------------------------------------------------

 NO OUTPUT CONTROL FOR STRESS PERIOD   48   TIME STEP   20
 
 SOLVING FOR HEAD 
                                                   Max.-Head-Change                         Max.-Flux-Residual
  Residual-Control   Outer-Iter.   Inner-Iter.     Column Row Layer    Maximum-Head-Change  Column Row Layer    Maximum-Flux-Residual          L2-NORM 
          0                 1           2             4    7     1       0.4086489241E-01       4    7    1         0.2151086132E+01      0.4467000273E+01
          0                 2           2             4    7     1      -0.3975075806E-02       4    7    1        -0.2151110599E+00      0.4467007493E+00
          0                 3           2             4    7     1       0.2706875728E-03       4    7    1         0.1505775755E-01      0.3126897350E-01
          0                 4           1             4    7     1      -0.1077091370E-04       4    7    1        -0.6158632516E-03      0.1278888354E-02

    ------------------------------------------------
       NWT REQUIRED            4 OUTER ITERATIONS 
       AND A TOTAL OF          7 INNER ITERATIONS.
    ------------------------------------------------

 NO OUTPUT CONTROL FOR STRESS PERIOD   48   TIME STEP   21
 
 SOLVING FOR HEAD 
                                                   Max.-Head-Change                         Max.-Flux-Residual
  Residual-Control   Outer-Iter.   Inner-Iter.     Column Row Layer    Maximum-Head-Change  Column Row Layer    Maximum-Flux-Residual          L2-NORM 
          0                 1           2             4    7     1       0.4033744605E-01       4    7    1         0.2123217029E+01      0.4418032058E+01
          0                 2           2             4    7     1      -0.3923768761E-02       4    7    1        -0.2123240885E+00      0.4418038808E+00
          0                 3           2             4    7     1       0.2671937620E-03       4    7    1         0.1486267004E-01      0.3092618883E-01
          0                 4           1             4    7     1      -0.1063189160E-04       4    7    1        -0.6078841484E-03      0.1264897345E-02

    ------------------------------------------------
       NWT REQUIRED            4 OUTER ITERATIONS 
       AND A TOTAL OF          7 INNER ITERATIONS.
    ------------------------------------------------

 NO OUTPUT CONTROL FOR STRESS PERIOD   48   TIME STEP   22
 
 SOLVING FOR HEAD 
                                                   Max.-Head-Change                         Max.-Flux-Residual
  Residual-Control   Outer-Iter.   Inner-Iter.     Column Row Layer    Maximum-Head-Change  Column Row Layer    Maximum-Flux-Residual          L2-NORM 
          0                 1           2             4    7     1       0.3981881005E-01       4    7    1         0.2095811898E+01      0.4370004651E+01
          0                 2           2             4    7     1      -0.3873318744E-02       4    7    1        -0.2095835158E+00      0.4370011315E+00
          0                 3           2             4    7     1       0.2637583114E-03       4    7    1         0.1467083042E-01      0.3059000862E-01
          0                 4           1             4    7     1      -0.1049519162E-04       4    7    1        -0.6000379017E-03      0.1251127498E-02

    ------------------------------------------------
       NWT REQUIRED            4 OUTER ITERATIONS 
       AND A TOTAL OF          7 INNER ITERATIONS.
    ------------------------------------------------

 NO OUTPUT CONTROL FOR STRESS PERIOD   48   TIME STEP   23
 
 SOLVING FOR HEAD 
                                                   Max.-Head-Change                         Max.-Flux-Residual
  Residual-Control   Outer-Iter.   Inner-Iter.     Column Row Layer    Maximum-Head-Change  Column Row Layer    Maximum-Flux-Residual          L2-NORM 
          0                 1           2             4    7     1       0.3930884320E-01       4    7    1         0.2068863562E+01      0.4322891530E+01
          0                 2           2             4    7     1      -0.3823712020E-02       4    7    1        -0.2068886241E+00      0.4322897703E+00
          0                 3           2             4    7     1       0.2603802859E-03       4    7    1         0.1448218848E-01      0.3026019372E-01
          0                 4           1             4    7     1      -0.1036077692E-04       4    7    1        -0.5923224337E-03      0.1237626609E-02

    ------------------------------------------------
       NWT REQUIRED            4 OUTER ITERATIONS 
       AND A TOTAL OF          7 INNER ITERATIONS.
    ------------------------------------------------

 NO OUTPUT CONTROL FOR STRESS PERIOD   48   TIME STEP   24
 
 SOLVING FOR HEAD 
                                                   Max.-Head-Change                         Max.-Flux-Residual
  Residual-Control   Outer-Iter.   Inner-Iter.     Column Row Layer    Maximum-Head-Change  Column Row Layer    Maximum-Flux-Residual          L2-NORM 
          0                 1           2             4    7     1       0.3880740371E-01       4    7    1         0.2042364699E+01      0.4276661499E+01
          0                 2           2             4    7     1      -0.3774934798E-02       4    7    1        -0.2042386810E+00      0.4276667534E+00
          0                 3           2             4    7     1       0.2570587460E-03       4    7    1         0.1429669293E-01      0.2993660765E-01
          0                 4           1             4    7     1      -0.1022860963E-04       4    7    1        -0.5847356533E-03      0.1224407028E-02

    ------------------------------------------------
       NWT REQUIRED            4 OUTER ITERATIONS 
       AND A TOTAL OF          7 INNER ITERATIONS.
    ------------------------------------------------

 NO OUTPUT CONTROL FOR STRESS PERIOD   48   TIME STEP   25
 
 SOLVING FOR HEAD 
                                                   Max.-Head-Change                         Max.-Flux-Residual
  Residual-Control   Outer-Iter.   Inner-Iter.     Column Row Layer    Maximum-Head-Change  Column Row Layer    Maximum-Flux-Residual          L2-NORM 
          0                 1           2             4    7     1       0.3831461827E-01       4    7    1         0.2016322423E+01      0.4231312923E+01
          0                 2           2             4    7     1      -0.3726999399E-02       4    7    1        -0.2016343981E+00      0.4231318576E+00
          0                 3           2             4    7     1       0.2537945311E-03       4    7    1         0.1411439357E-01      0.2961917025E-01
          0                 4           1             4    7     1      -0.1009872336E-04       4    7    1        -0.5772795976E-03      0.1211436044E-02

    ------------------------------------------------
       NWT REQUIRED            4 OUTER ITERATIONS 
       AND A TOTAL OF          7 INNER ITERATIONS.
    ------------------------------------------------

 NO OUTPUT CONTROL FOR STRESS PERIOD   48   TIME STEP   26
 
 SOLVING FOR HEAD 
                                                   Max.-Head-Change                         Max.-Flux-Residual
  Residual-Control   Outer-Iter.   Inner-Iter.     Column Row Layer    Maximum-Head-Change  Column Row Layer    Maximum-Flux-Residual          L2-NORM 
          0                 1           2             4    7     1       0.3782993177E-01       4    7    1         0.1990707142E+01      0.4186796747E+01
          0                 2           2             4    7     1      -0.3679851825E-02       4    7    1        -0.1990728161E+00      0.4186802153E+00
          0                 3           2             4    7     1       0.2505839637E-03       4    7    1         0.1393508325E-01      0.2930753980E-01
          0                 4           1             4    7     1      -0.9970971788E-05       4    7    1        -0.5699457922E-03      0.1198678291E-02

    ------------------------------------------------
       NWT REQUIRED            4 OUTER ITERATIONS 
       AND A TOTAL OF          7 INNER ITERATIONS.
    ------------------------------------------------

 NO OUTPUT CONTROL FOR STRESS PERIOD   48   TIME STEP   27
 
 SOLVING FOR HEAD 
                                                   Max.-Head-Change                         Max.-Flux-Residual
  Residual-Control   Outer-Iter.   Inner-Iter.     Column Row Layer    Maximum-Head-Change  Column Row Layer    Maximum-Flux-Residual          L2-NORM 
          0                 1           2             4    7     1       0.3735360708E-01       4    7    1         0.1965533469E+01      0.4143104656E+01
          0                 2           2             4    7     1      -0.3633517648E-02       4    7    1        -0.1965553962E+00      0.4143109623E+00
          0                 3           2             4    7     1       0.2474287857E-03       4    7    1         0.1375886428E-01      0.2900170530E-01
          0                 4           1             4    7     1      -0.9845424679E-05       4    7    1        -0.5627384292E-03      0.1186163363E-02

    ------------------------------------------------
       NWT REQUIRED            4 OUTER ITERATIONS 
       AND A TOTAL OF          7 INNER ITERATIONS.
    ------------------------------------------------

 NO OUTPUT CONTROL FOR STRESS PERIOD   48   TIME STEP   28
 
 SOLVING FOR HEAD 
                                                   Max.-Head-Change                         Max.-Flux-Residual
  Residual-Control   Outer-Iter.   Inner-Iter.     Column Row Layer    Maximum-Head-Change  Column Row Layer    Maximum-Flux-Residual          L2-NORM 
          0                 1           2             4    7     1       0.3688522860E-01       4    7    1         0.1940778870E+01      0.4100213660E+01
          0                 2           2             4    7     1      -0.3587956439E-02       4    7    1        -0.1940798850E+00      0.4100218427E+00
          0                 3           2             4    7     1       0.2443262435E-03       4    7    1         0.1358557891E-01      0.2870146076E-01
          0                 4           1             4    7     1      -0.9721971281E-05       4    7    1        -0.5556510375E-03      0.1173898047E-02

    ------------------------------------------------
       NWT REQUIRED            4 OUTER ITERATIONS 
       AND A TOTAL OF          7 INNER ITERATIONS.
    ------------------------------------------------

 NO OUTPUT CONTROL FOR STRESS PERIOD   48   TIME STEP   29
 
 SOLVING FOR HEAD 
                                                   Max.-Head-Change                         Max.-Flux-Residual
  Residual-Control   Outer-Iter.   Inner-Iter.     Column Row Layer    Maximum-Head-Change  Column Row Layer    Maximum-Flux-Residual          L2-NORM 
          0                 1           2             4    7     1       0.3642478765E-01       4    7    1         0.1916443495E+01      0.4058102904E+01
          0                 2           2             4    7     1      -0.3543167357E-02       4    7    1        -0.1916462976E+00      0.4058107310E+00
          0                 3           2             4    7     1       0.2412762803E-03       4    7    1         0.1341522819E-01      0.2840668077E-01
          0                 4           1             4    7     1      -0.9600610558E-05       4    7    1        -0.5486836847E-03      0.1161831558E-02

    ------------------------------------------------
       NWT REQUIRED            4 OUTER ITERATIONS 
       AND A TOTAL OF          7 INNER ITERATIONS.
    ------------------------------------------------

 NO OUTPUT CONTROL FOR STRESS PERIOD   48   TIME STEP   30



 STREAM LISTING     PERIOD     48   STEP       30

 LAYER ROW COL. STREAM  RCH.  FLOW INTO     FLOW TO   FLOW OUT OF   OVRLND.     DIRECT     STREAM       STREAM     STREAM     STREAM   STREAMBED  STREAMBED
                SEG.NO.  NO.  STRM. RCH.    AQUIFER    STRM. RCH.    RUNOFF     PRECIP       ET          HEAD       DEPTH      WIDTH   CONDCTNC.   GRADIENT

   1    1    1     1     1    7.8748E+00  1.2804E-01   7.7467E+00  0.000E+00  0.000E+00  0.000E+00  1.09388E+03  8.295E-01  7.430E+00  3.344E-02  1.276E+00
   1    2    2     1     2    7.7467E+00  1.9662E-01   7.5501E+00  0.000E+00  0.000E+00  0.000E+00  1.08888E+03  8.237E-01  7.346E+00  5.142E-02  1.275E+00
   1    3    3     1     3    7.5501E+00  1.6606E-01   7.3840E+00  0.000E+00  0.000E+00  0.000E+00  1.08324E+03  8.172E-01  7.251E+00  4.350E-02  1.272E+00
   1    3    4     1     4    7.3840E+00  1.5159E-01   7.2324E+00  0.000E+00  0.000E+00  0.000E+00  1.07822E+03  8.115E-01  7.166E+00  3.977E-02  1.270E+00
   1    4    5     2     1    5.2324E+00  2.7028E-01   4.9622E+00  0.000E+00  0.000E+00  0.000E+00  1.07240E+03  4.651E-01  1.200E+01  7.800E-02  1.155E+00
   1    5    6     2     2    4.9622E+00  2.0711E-01   4.7551E+00  0.000E+00  0.000E+00  0.000E+00  1.06696E+03  4.519E-01  1.200E+01  6.000E-02  1.151E+00
   1    6    6     2     3    4.7551E+00  2.0642E-01   4.5486E+00  0.000E+00  0.000E+00  0.000E+00  1.06223E+03  4.403E-01  1.200E+01  6.000E-02  1.147E+00
   1    7    6     2     4    4.5486E+00  2.0571E-01   4.3429E+00  0.000E+00  0.000E+00  0.000E+00  1.05750E+03  4.285E-01  1.200E+01  6.000E-02  1.143E+00
   1    8    6     2     5    4.3429E+00  2.0499E-01   4.1379E+00  0.000E+00  0.000E+00  0.000E+00  1.05278E+03  4.165E-01  1.200E+01  6.000E-02  1.139E+00
   1    3    5     3     1    2.0000E+00  2.8252E-01   1.7175E+00  0.000E+00  0.000E+00  0.000E+00  1.07555E+03  1.909E+00  9.636E+00  7.227E-02  1.955E+00
   1    3    6     3     2    1.7175E+00  2.4905E-01   1.4684E+00  0.000E+00  0.000E+00  0.000E+00  1.07264E+03  1.727E+00  8.909E+00  6.682E-02  1.864E+00
   1    3    7     3     3    1.4684E+00  1.9718E-01   1.2712E+00  0.000E+00  0.000E+00  0.000E+00  1.06987E+03  1.555E+00  8.218E+00  5.547E-02  1.777E+00
   1    4    8     3     4    1.2712E+00  2.2567E-01   1.0456E+00  0.000E+00  0.000E+00  0.000E+00  1.06682E+03  1.364E+00  7.455E+00  6.709E-02  1.682E+00
   1    5    8     3     5    1.0456E+00  1.5790E-01   8.8768E-01  0.000E+00  0.000E+00  0.000E+00  1.06362E+03  1.164E+00  6.655E+00  4.991E-02  1.582E+00
   1    6    8     3     6    8.8768E-01  5.5980E-02   8.3170E-01  0.000E+00  0.000E+00  0.000E+00  1.06158E+03  1.036E+00  6.145E+00  1.844E-02  1.518E+00
   1    5   10     4     1    1.0000E+01  9.0919E-02   9.9091E+00  0.000E+00  0.000E+00  0.000E+00  1.07836E+03  6.368E-01  1.000E+01  2.500E-02  1.212E+00
   1    5    9     4     2    9.9091E+00  1.8158E-01   9.7275E+00  0.000E+00  0.000E+00  0.000E+00  1.07154E+03  6.315E-01  1.000E+01  5.000E-02  1.211E+00
   1    6    8     4     3    9.7275E+00  1.2689E-01   9.6006E+00  0.000E+00  0.000E+00  0.000E+00  1.06381E+03  6.256E-01  1.000E+01  3.500E-02  1.209E+00
   1    6    8     5     1    1.0432E+01  2.2686E-01   1.0205E+01  0.000E+00  0.000E+00  0.000E+00  1.05868E+03  6.790E-01  1.542E+01  6.166E-02  1.226E+00
   1    7    7     5     2    1.0205E+01  2.7894E-01   9.9265E+00  0.000E+00  0.000E+00  0.000E+00  1.05417E+03  6.732E-01  1.519E+01  7.594E-02  1.224E+00
   1    8    7     5     3    9.9265E+00  1.9221E-01   9.7343E+00  0.000E+00  0.000E+00  0.000E+00  1.04992E+03  6.676E-01  1.497E+01  5.241E-02  1.223E+00
   1    8    6     5     4    9.7343E+00  1.3577E-01   9.5985E+00  0.000E+00  0.000E+00  0.000E+00  1.04691E+03  6.637E-01  1.482E+01  3.706E-02  1.221E+00
   1    9    6     6     1    1.3736E+01  2.3089E-01   1.3506E+01  0.000E+00  0.000E+00  0.000E+00  1.04358E+03  8.482E-01  1.200E+01  6.000E-02  1.283E+00
   1   10    7     6     2    1.3506E+01  2.3037E-01   1.3275E+01  0.000E+00  0.000E+00  0.000E+00  1.03902E+03  8.396E-01  1.200E+01  6.000E-02  1.280E+00
   1   11    7     6     3    1.3275E+01  2.2985E-01   1.3045E+01  0.000E+00  0.000E+00  0.000E+00  1.03447E+03  8.309E-01  1.200E+01  6.000E-02  1.277E+00
   1   12    7     6     4    1.3045E+01  2.2933E-01   1.2816E+01  0.000E+00  0.000E+00  0.000E+00  1.02991E+03  8.221E-01  1.200E+01  6.000E-02  1.274E+00
   1   13    7     6     5    1.2816E+01  1.0401E-02   1.2806E+01  0.000E+00  0.000E+00  0.000E+00  1.02673E+03  8.176E-01  1.200E+01  2.400E-02  1.445E-01
   1   14    9     7     1    1.5000E+02  1.4170E+00   1.4858E+02  0.000E+00  0.000E+00  0.000E+00  1.03987E+03  2.287E+00  5.529E+01  5.593E-01  8.445E-01
   1   13    8     7     2    1.4858E+02  2.0889E+00   1.4649E+02  0.000E+00  0.000E+00  0.000E+00  1.03478E+03  2.278E+00  5.525E+01  6.147E-01  1.133E+00
   1   13    7     7     3    1.4649E+02  1.8947E+00   1.4460E+02  0.000E+00  0.000E+00  0.000E+00  1.02969E+03  2.268E+00  5.520E+01  5.583E-01  1.131E+00
   1   13    6     8     1    1.5740E+02  1.2600E+00   1.5614E+02  0.000E+00  0.000E+00  0.000E+00  1.02474E+03  2.864E+00  4.153E+01  4.232E-01  9.925E-01
   1   13    5     8     2    1.5614E+02  4.9939E-01   1.5565E+02  0.000E+00  0.000E+00  0.000E+00  1.01848E+03  2.858E+00  4.144E+01  4.223E-01  3.942E-01
   1   13    4     8     3    1.5565E+02 -1.3118E+00   1.5696E+02  0.000E+00  0.000E+00  0.000E+00  1.01224E+03  2.861E+00  4.148E+01  4.227E+00 -1.035E-01
   1   13    3     8     4    1.5696E+02 -3.0996E+00   1.6006E+02  0.000E+00  0.000E+00  0.000E+00  1.00600E+03  2.876E+00  4.170E+01  4.249E+00 -2.432E-01
   1   13    2     8     5    1.6006E+02 -2.4448E+00   1.6250E+02  0.000E+00  0.000E+00  0.000E+00  9.99769E+02  2.894E+00  4.197E+01  4.277E+00 -1.905E-01
   1   13    1     8     6    1.6250E+02 -1.9500E+00   1.6445E+02  0.000E+00  0.000E+00  0.000E+00  9.94784E+02  2.909E+00  4.218E+01  2.579E+00 -2.520E-01
   1    8    6     9     1    0.0000E+00  0.0000E+00   0.0000E+00  0.000E+00  0.000E+00  0.000E+00  1.07875E+03  0.000E+00  4.000E+00  0.000E+00  1.000E+00
   1    8    5     9     2    0.0000E+00  0.0000E+00   0.0000E+00  0.000E+00  0.000E+00  0.000E+00  1.07825E+03  0.000E+00  4.000E+00  0.000E+00  1.000E+00





UNSATURATED ZONE PACKAGE VOLUMETRIC BUDGET FOR  TIME STEP    30 STRESS PERIOD   48
  ------------------------------------------------------------------------------



     CUMULATIVE VOLUMES      L**3       RATES FOR THIS TIME STEP      L**3/T
     ------------------                 ------------------------

           IN:                                      IN:
           ---                                      ---
        INFILTRATION =  1704609578.0755          INFILTRATION =           0.8475

          OUT:                                     OUT:
          ----                                     ----
              UZF ET =  1703527588.1749                UZF ET =           0.7500
        UZF RECHARGE =       73224.0000          UZF RECHARGE =       0.0000E+00

            IN - OUT =     1008765.9006              IN - OUT =       9.7500E-02

          STORAGE:                                 STORAGE:
          --------                                 --------
      STORAGE CHANGE =     1008766.0777        STORAGE CHANGE =       9.7500E-02

 PERCENT DISCREPANCY IS DIFFERENCE BETWEEN IN-OUT MINUS CHANGE IN STORAGE
 DIVIDED BY THE AVERAGE OF IN AND OUT TIMES 100

 PERCENT DISCREPANCY =           0.00     PERCENT DISCREPANCY =           0.00






1
  VOLUMETRIC BUDGET FOR AGRICULTURAL FIELDS AT  END OF TIME STEP   30, STRESS PERIOD  48
  ------------------------------------------------------------------------------

     CUMULATIVE VOLUMES      L**3       RATES FOR THIS TIME STEP      L**3/T
     ------------------                 ------------------------

           IN:                                      IN:
           ---                                      ---
               AG WELLS  =  1599775104.0000                 AG WELLS  =           0.0000
      DIVERSION SEGMENTS =           0.0000        DIVERSION SEGMENTS =           0.0000
       IRRIGATION PONDS  =           0.0000         IRRIGATION PONDS  =           0.0000
           GW IRRIGATION =           0.0000             GW IRRIGATION =           0.0000
           SW IRRIGATION =           0.0000             SW IRRIGATION =           0.0000
        SYSTEM LOSSES GW =           0.0000          SYSTEM LOSSES GW =           0.0000
        SYSTEM LOSSES SW =           0.0000          SYSTEM LOSSES SW =           0.0000

                TOTAL IN =  1599775104.0000                  TOTAL IN =           0.0000

          OUT:                                     OUT:
          ----                                     ----
               AG WELLS  =           0.0000                 AG WELLS  =           0.0000
      DIVERSION SEGMENTS =           0.0000        DIVERSION SEGMENTS =           0.0000
       IRRIGATION PONDS  =           0.0000         IRRIGATION PONDS  =           0.0000
           GW IRRIGATION =  1599775104.0000             GW IRRIGATION =           0.0000
           SW IRRIGATION =           0.0000             SW IRRIGATION =           0.0000
        SYSTEM LOSSES GW =           0.0000          SYSTEM LOSSES GW =           0.0000
        SYSTEM LOSSES SW =           0.0000          SYSTEM LOSSES SW =           0.0000

               TOTAL OUT =  1599775104.0000                 TOTAL OUT =           0.0000

                IN - OUT =           0.0000                  IN - OUT =           0.0000

     PERCENT DISCREPANCY =           0.00         PERCENT DISCREPANCY =           0.00



1
  VOLUMETRIC BUDGET FOR ENTIRE MODEL AT END OF TIME STEP   30, STRESS PERIOD  48
  ------------------------------------------------------------------------------

     CUMULATIVE VOLUMES      L**3       RATES FOR THIS TIME STEP      L**3/T
     ------------------                 ------------------------

           IN:                                      IN:
           ---                                      ---
             STORAGE     =  2109770368.0000               STORAGE     =           9.0575
       CONSTANT HEAD     =           0.0000         CONSTANT HEAD     =           0.0000
     HEAD DEP BOUNDS     =    35749276.0000       HEAD DEP BOUNDS     =           0.2913
      STREAM LEAKAGE     =  1507229568.0000        STREAM LEAKAGE     =          12.2291
        UZF RECHARGE     =       73223.9531          UZF RECHARGE     =           0.0000
               GW ET     =           0.0000                 GW ET     =           0.0000
     SURFACE LEAKAGE     =           0.0000       SURFACE LEAKAGE     =           0.0000
           AG WELLS      =           0.0000             AG WELLS      =           0.0000

                TOTAL IN =  3652822528.0000                  TOTAL IN =          21.5780

          OUT:                                     OUT:
          ----                                     ----
             STORAGE     =   831559744.0000               STORAGE     =          12.4852
       CONSTANT HEAD     =           0.0000         CONSTANT HEAD     =           0.0000
     HEAD DEP BOUNDS     =    35706416.0000       HEAD DEP BOUNDS     =           0.2865
      STREAM LEAKAGE     =  1185794688.0000        STREAM LEAKAGE     =           8.8062
        UZF RECHARGE     =           0.0000          UZF RECHARGE     =           0.0000
               GW ET     =           0.0000                 GW ET     =           0.0000
     SURFACE LEAKAGE     =           0.0000       SURFACE LEAKAGE     =           0.0000
           AG WELLS      =  1599775104.0000             AG WELLS      =           0.0000

               TOTAL OUT =  3652835840.0000                 TOTAL OUT =          21.5780

                IN - OUT =      -13312.0000                  IN - OUT =       1.5259E-05

     PERCENT DISCREPANCY =          -0.00         PERCENT DISCREPANCY =           0.00






         TIME SUMMARY AT END OF TIME STEP   30 IN STRESS PERIOD   48
                    SECONDS     MINUTES      HOURS       DAYS        YEARS
                    -----------------------------------------------------------
   TIME STEP LENGTH  87667.      1461.1      24.352      1.0147     2.77799E-03
 STRESS PERIOD TIME 2.63000E+06  43833.      730.56      30.440     8.33397E-02
         TOTAL TIME 1.23695E+08 2.06158E+06  34360.      1431.7      3.9197    
1
1
                            STRESS PERIOD NO.   49, LENGTH =   2630000.    
                            -----------------------------------------------

                              NUMBER OF TIME STEPS =    30

                               MULTIPLIER FOR DELT =     1.000

                            INITIAL TIME STEP SIZE =   87666.66    

 REUSING NON-PARAMETER GHB CELLS FROM LAST STRESS PERIOD

      2 GHB CELLS

 REUSING STREAM SEGMENT DATA FROM LAST STRESS PERIOD



            AREAL INFILTRATION RATE
 READING ON UNIT   19 WITH FORMAT: (FREE)              

            1           2           3           4           5           6           7           8           9          10
 ........................................................................................................................
   1   1.0000E-10  2.0000E-10   0.000       0.000       0.000       0.000       0.000       0.000       0.000       0.000    
   2   2.0000E-10  1.0000E-10  2.0000E-10   0.000       0.000      8.0000E-10  8.0000E-10  5.0000E-10   0.000       0.000    
   3    0.000      5.0000E-10  1.0000E-10  1.0000E-10  8.0000E-10  8.0000E-10  5.0000E-10  5.0000E-10   0.000       0.000    
   4   8.0000E-10  5.0000E-10  1.0000E-10  1.0000E-10  1.0000E-10  1.0000E-10  1.0000E-10  1.0000E-10  2.0000E-10   0.000    
   5   8.0000E-10  5.0000E-10  1.0000E-10  1.0000E-10  1.0000E-10  1.0000E-10  1.0000E-10  1.0000E-10  1.0000E-10  1.0000E-10
   6   8.0000E-10  5.0000E-10  5.0000E-10  2.0000E-10  2.0000E-10  1.0000E-10  1.0000E-10  1.0000E-10  1.0000E-10  5.0000E-10
   7   8.0000E-10  5.0000E-10  5.0000E-10  2.0000E-10  2.0000E-10  1.0000E-10  1.0000E-10  2.0000E-10  2.0000E-10   0.000    
   8    0.000      5.0000E-10  5.0000E-10  2.0000E-10  2.0000E-10  1.0000E-10  1.0000E-10  2.0000E-10  5.0000E-10   0.000    
   9    0.000      5.0000E-10  5.0000E-10  2.0000E-10  2.0000E-10  1.0000E-10  1.0000E-10  2.0000E-10  5.0000E-10   0.000    
  10    0.000      5.0000E-10  5.0000E-10  2.0000E-10  2.0000E-10  1.0000E-10  1.0000E-10  2.0000E-10  5.0000E-10  8.0000E-10
  11    0.000      1.0000E-10  1.0000E-10  1.0000E-10  1.0000E-10  1.0000E-10  1.0000E-10  2.0000E-10  5.0000E-10   0.000    
  12   1.0000E-10  1.0000E-10  1.0000E-10  1.0000E-10  1.0000E-10  1.0000E-10  1.0000E-10  1.0000E-10  2.0000E-10   0.000    
  13   1.0000E-10  1.0000E-10  2.0000E-10  2.0000E-10  2.0000E-10  2.0000E-10  2.0000E-10  1.0000E-10  1.0000E-10   0.000    
  14    0.000      2.0000E-10  5.0000E-10  5.0000E-10  5.0000E-10  5.0000E-10  5.0000E-10  2.0000E-10  1.0000E-10   0.000    
  15    0.000       0.000      8.0000E-10  8.0000E-10  8.0000E-10  8.0000E-10   0.000       0.000       0.000       0.000    

                  ET RATE =  5.000000E-10

 USING ET EXTINCTION DEPTH FROM PREVIOUS STRESS PERIOD. CURRENT PERIOD IS:      49

 USING EXTINCTION WATER CONTENT FROM PREVIOUS STRESS PERIOD. CURRENT PERIOD IS:      49

 USING AIR ENTRY PRESSURE FROM PREVIOUS STRESS PERIOD. CURRENT PERIOD IS:      49

 USING ROOT PRESSURE HEAD FROM PREVIOUS STRESS PERIOD. CURRENT PERIOD IS:      49

 USING ROOT ACTIVITY FROM PREVIOUS STRESS PERIOD. CURRENT PERIOD IS:      49

 PROCESSING AG STRESS PERIOD DATA

 READING AG STRESS PERIOD DATA

 READING IRRIGATION SEGMENT

 READING IRRIGATION WELL

 READING SUPPLEMENTAL WELL

 NO IRRPOND OR REUSING IRRPOND DATA FROM LAST STRESS PERIOD

 END PROCESSING AG STRESS PERIOD DATA OPTIONS
 
 SOLVING FOR HEAD 
                                                   Max.-Head-Change                         Max.-Flux-Residual
  Residual-Control   Outer-Iter.   Inner-Iter.     Column Row Layer    Maximum-Head-Change  Column Row Layer    Maximum-Flux-Residual          L2-NORM 
          0                 1           2             4    7     1       0.3597227271E-01       4    7    1         0.1892526899E+01      0.4016756142E+01
          0                 2           2             4    7     1      -0.3499149276E-02       4    7    1        -0.1892545894E+00      0.4016760355E+00
          0                 3           2             4    7     1       0.2382788193E-03       4    7    1         0.1324780900E-01      0.2811725947E-01
          0                 4           1             4    7     1      -0.9481338824E-05       4    7    1        -0.5418362400E-03      0.1150001872E-02

    ------------------------------------------------
       NWT REQUIRED            4 OUTER ITERATIONS 
       AND A TOTAL OF          7 INNER ITERATIONS.
    ------------------------------------------------

 NO OUTPUT CONTROL FOR STRESS PERIOD   49   TIME STEP    1
 
 SOLVING FOR HEAD 
                                                   Max.-Head-Change                         Max.-Flux-Residual
  Residual-Control   Outer-Iter.   Inner-Iter.     Column Row Layer    Maximum-Head-Change  Column Row Layer    Maximum-Flux-Residual          L2-NORM 
          0                 1           2             4    7     1       0.3552740105E-01       4    7    1         0.1869014013E+01      0.3976150693E+01
          0                 2           2             4    7     1      -0.3455874697E-02       4    7    1        -0.1869032534E+00      0.3976154538E+00
          0                 3           2             4    7     1       0.2353319876E-03       4    7    1         0.1308321585E-01      0.2783302090E-01
          0                 4           1             4    7     1      -0.9364081248E-05       4    7    1        -0.5351043603E-03      0.1138364513E-02

    ------------------------------------------------
       NWT REQUIRED            4 OUTER ITERATIONS 
       AND A TOTAL OF          7 INNER ITERATIONS.
    ------------------------------------------------

 NO OUTPUT CONTROL FOR STRESS PERIOD   49   TIME STEP    2
 
 SOLVING FOR HEAD 
                                                   Max.-Head-Change                         Max.-Flux-Residual
  Residual-Control   Outer-Iter.   Inner-Iter.     Column Row Layer    Maximum-Head-Change  Column Row Layer    Maximum-Flux-Residual          L2-NORM 
          0                 1           2             4    7     1       0.3509003160E-01       4    7    1         0.1845897413E+01      0.3936271883E+01
          0                 2           2             4    7     1      -0.3413329896E-02       4    7    1        -0.1845915472E+00      0.3936275482E+00
          0                 3           2             4    7     1       0.2324348509E-03       4    7    1         0.1292139679E-01      0.2755386201E-01
          0                 4           1             4    7     1      -0.9248801334E-05       4    7    1        -0.5284859390E-03      0.1126953842E-02

    ------------------------------------------------
       NWT REQUIRED            4 OUTER ITERATIONS 
       AND A TOTAL OF          7 INNER ITERATIONS.
    ------------------------------------------------

 NO OUTPUT CONTROL FOR STRESS PERIOD   49   TIME STEP    3
 
 SOLVING FOR HEAD 
                                                   Max.-Head-Change                         Max.-Flux-Residual
  Residual-Control   Outer-Iter.   Inner-Iter.     Column Row Layer    Maximum-Head-Change  Column Row Layer    Maximum-Flux-Residual          L2-NORM 
          0                 1           2             4    7     1       0.3466015463E-01       4    7    1         0.1823177022E+01      0.3897538492E+01
          0                 2           2             4    7     1      -0.3371513928E-02       4    7    1        -0.1823194631E+00      0.3897538038E+00
          0                 3           2             4    7     1       0.2295873452E-03       4    7    1         0.1276235127E-01      0.2728267356E-01
          0                 4           1             4    7     1      -0.9135496434E-05       4    7    1        -0.5219809780E-03      0.1115883234E-02

    ------------------------------------------------
       NWT REQUIRED            4 OUTER ITERATIONS 
       AND A TOTAL OF          7 INNER ITERATIONS.
    ------------------------------------------------

 NO OUTPUT CONTROL FOR STRESS PERIOD   49   TIME STEP    4
 
 SOLVING FOR HEAD 
                                                   Max.-Head-Change                         Max.-Flux-Residual
  Residual-Control   Outer-Iter.   Inner-Iter.     Column Row Layer    Maximum-Head-Change  Column Row Layer    Maximum-Flux-Residual          L2-NORM 
          0                 1           2             4    7     1       0.3423749080E-01       4    7    1         0.1800837862E+01      0.3859461775E+01
          0                 2           2             4    7     1      -0.3330399619E-02       4    7    1        -0.1800855034E+00      0.3859456984E+00
          0                 3           2             4    7     1       0.2267876192E-03       4    7    1         0.1260597444E-01      0.2701605659E-01
          0                 4           1             4    7     1      -0.9024092866E-05       4    7    1        -0.5155851393E-03      0.1104962698E-02

    ------------------------------------------------
       NWT REQUIRED            4 OUTER ITERATIONS 
       AND A TOTAL OF          7 INNER ITERATIONS.
    ------------------------------------------------

 NO OUTPUT CONTROL FOR STRESS PERIOD   49   TIME STEP    5
 
 SOLVING FOR HEAD 
                                                   Max.-Head-Change                         Max.-Flux-Residual
  Residual-Control   Outer-Iter.   Inner-Iter.     Column Row Layer    Maximum-Head-Change  Column Row Layer    Maximum-Flux-Residual          L2-NORM 
          0                 1           2             4    7     1       0.3382203543E-01       4    7    1         0.1778879925E+01      0.3821633508E+01
          0                 2           2             4    7     1      -0.3289986512E-02       4    7    1        -0.1778896670E+00      0.3821629020E+00
          0                 3           2             4    7     1       0.2240356430E-03       4    7    1         0.1245226624E-01      0.2675128354E-01
          0                 4           1             4    7     1      -0.8914589249E-05       4    7    1        -0.5092984752E-03      0.1094147686E-02

    ------------------------------------------------
       NWT REQUIRED            4 OUTER ITERATIONS 
       AND A TOTAL OF          7 INNER ITERATIONS.
    ------------------------------------------------

 NO OUTPUT CONTROL FOR STRESS PERIOD   49   TIME STEP    6
 
 SOLVING FOR HEAD 
                                                   Max.-Head-Change                         Max.-Flux-Residual
  Residual-Control   Outer-Iter.   Inner-Iter.     Column Row Layer    Maximum-Head-Change  Column Row Layer    Maximum-Flux-Residual          L2-NORM 
          0                 1           2             4    7     1       0.3341351277E-01       4    7    1         0.1757288491E+01      0.3784455388E+01
          0                 2           2             4    7     1      -0.3250247787E-02       4    7    1        -0.1757304822E+00      0.3784451317E+00
          0                 3           2             4    7     1       0.2213295887E-03       4    7    1         0.1230112362E-01      0.2649100006E-01
          0                 4           1             4    7     1      -0.8806912476E-05       4    7    1        -0.5031167113E-03      0.1083476832E-02

    ------------------------------------------------
       NWT REQUIRED            4 OUTER ITERATIONS 
       AND A TOTAL OF          7 INNER ITERATIONS.
    ------------------------------------------------

 NO OUTPUT CONTROL FOR STRESS PERIOD   49   TIME STEP    7
 
 SOLVING FOR HEAD 
                                                   Max.-Head-Change                         Max.-Flux-Residual
  Residual-Control   Outer-Iter.   Inner-Iter.     Column Row Layer    Maximum-Head-Change  Column Row Layer    Maximum-Flux-Residual          L2-NORM 
          0                 1           2             4    7     1       0.3301205692E-01       4    7    1         0.1736070981E+01      0.3747928303E+01
          0                 2           2             4    7     1      -0.3211196485E-02       4    7    1        -0.1736086907E+00      0.3747924442E+00
          0                 3           2             4    7     1       0.2186703457E-03       4    7    1         0.1215259853E-01      0.2623534769E-01
          0                 4           1             4    7     1      -0.8701098814E-05       4    7    1        -0.4970420403E-03      0.1073029907E-02

    ------------------------------------------------
       NWT REQUIRED            4 OUTER ITERATIONS 
       AND A TOTAL OF          7 INNER ITERATIONS.
    ------------------------------------------------

 NO OUTPUT CONTROL FOR STRESS PERIOD   49   TIME STEP    8
 
 SOLVING FOR HEAD 
                                                   Max.-Head-Change                         Max.-Flux-Residual
  Residual-Control   Outer-Iter.   Inner-Iter.     Column Row Layer    Maximum-Head-Change  Column Row Layer    Maximum-Flux-Residual          L2-NORM 
          0                 1           2             4    7     1       0.3261739050E-01       4    7    1         0.1715212630E+01      0.3712024635E+01
          0                 2           2             4    7     1      -0.3172805626E-02       4    7    1        -0.1715228164E+00      0.3712021071E+00
          0                 3           2             4    7     1       0.2160560763E-03       4    7    1         0.1200658764E-01      0.2598402078E-01
          0                 4           1             4    7     1      -0.8597074465E-05       4    7    1        -0.4910701837E-03      0.1062739879E-02

    ------------------------------------------------
       NWT REQUIRED            4 OUTER ITERATIONS 
       AND A TOTAL OF          7 INNER ITERATIONS.
    ------------------------------------------------

 NO OUTPUT CONTROL FOR STRESS PERIOD   49   TIME STEP    9
 
 SOLVING FOR HEAD 
                                                   Max.-Head-Change                         Max.-Flux-Residual
  Residual-Control   Outer-Iter.   Inner-Iter.     Column Row Layer    Maximum-Head-Change  Column Row Layer    Maximum-Flux-Residual          L2-NORM 
          0                 1           2             4    7     1       0.3222937951E-01       4    7    1         0.1694706297E+01      0.3676735761E+01
          0                 2           2             4    7     1      -0.3135062172E-02       4    7    1        -0.1694721448E+00      0.3676732155E+00
          0                 3           2             4    7     1       0.2134858926E-03       4    7    1         0.1186304092E-01      0.2573699907E-01
          0                 4           1             4    7     1      -0.8494804545E-05       4    7    1        -0.4851991196E-03      0.1052625233E-02

    ------------------------------------------------
       NWT REQUIRED            4 OUTER ITERATIONS 
       AND A TOTAL OF          7 INNER ITERATIONS.
    ------------------------------------------------

 NO OUTPUT CONTROL FOR STRESS PERIOD   49   TIME STEP   10
 
 SOLVING FOR HEAD 
                                                   Max.-Head-Change                         Max.-Flux-Residual
  Residual-Control   Outer-Iter.   Inner-Iter.     Column Row Layer    Maximum-Head-Change  Column Row Layer    Maximum-Flux-Residual          L2-NORM 
          0                 1           2             4    7     1       0.3184788970E-01       4    7    1         0.1674545033E+01      0.3642039089E+01
          0                 2           2             4    7     1      -0.3097953068E-02       4    7    1        -0.1674559811E+00      0.3642035770E+00
          0                 3           2             4    7     1       0.2109589051E-03       4    7    1         0.1172190975E-01      0.2549412814E-01
          0                 4           1             4    7     1      -0.8394253365E-05       4    7    1        -0.4794268300E-03      0.1042722831E-02

    ------------------------------------------------
       NWT REQUIRED            4 OUTER ITERATIONS 
       AND A TOTAL OF          7 INNER ITERATIONS.
    ------------------------------------------------

 NO OUTPUT CONTROL FOR STRESS PERIOD   49   TIME STEP   11
 
 SOLVING FOR HEAD 
                                                   Max.-Head-Change                         Max.-Flux-Residual
  Residual-Control   Outer-Iter.   Inner-Iter.     Column Row Layer    Maximum-Head-Change  Column Row Layer    Maximum-Flux-Residual          L2-NORM 
          0                 1           2             4    7     1       0.3147279410E-01       4    7    1         0.1654721878E+01      0.3607929292E+01
          0                 2           2             4    7     1      -0.3061465961E-02       4    7    1        -0.1654736294E+00      0.3607925846E+00
          0                 3           2             4    7     1       0.2084742739E-03       4    7    1         0.1158314540E-01      0.2525536705E-01
          0                 4           1             4    7     1      -0.8295387999E-05       4    7    1        -0.4737513891E-03      0.1032938811E-02

    ------------------------------------------------
       NWT REQUIRED            4 OUTER ITERATIONS 
       AND A TOTAL OF          7 INNER ITERATIONS.
    ------------------------------------------------

 NO OUTPUT CONTROL FOR STRESS PERIOD   49   TIME STEP   12
 
 SOLVING FOR HEAD 
                                                   Max.-Head-Change                         Max.-Flux-Residual
  Residual-Control   Outer-Iter.   Inner-Iter.     Column Row Layer    Maximum-Head-Change  Column Row Layer    Maximum-Flux-Residual          L2-NORM 
          0                 1           2             4    7     1       0.3110409336E-01       4    7    1         0.1635237491E+01      0.3574386786E+01
          0                 2           2             4    7     1      -0.3025600912E-02       4    7    1        -0.1635251554E+00      0.3574383765E+00
          0                 3           2             4    7     1       0.2060320021E-03       4    7    1         0.1144675251E-01      0.2502057349E-01
          0                 4           1             4    7     1      -0.8198206834E-05       4    7    1        -0.4681728856E-03      0.1023338478E-02

    ------------------------------------------------
       NWT REQUIRED            4 OUTER ITERATIONS 
       AND A TOTAL OF          7 INNER ITERATIONS.
    ------------------------------------------------

 NO OUTPUT CONTROL FOR STRESS PERIOD   49   TIME STEP   13
 
 SOLVING FOR HEAD 
                                                   Max.-Head-Change                         Max.-Flux-Residual
  Residual-Control   Outer-Iter.   Inner-Iter.     Column Row Layer    Maximum-Head-Change  Column Row Layer    Maximum-Flux-Residual          L2-NORM 
          0                 1           2             4    7     1       0.3074152378E-01       4    7    1         0.1616077421E+01      0.3541404870E+01
          0                 2           2             4    7     1      -0.2990332273E-02       4    7    1        -0.1616091141E+00      0.3541401566E+00
          0                 3           2             4    7     1       0.2036303438E-03       4    7    1         0.1131262989E-01      0.2478969681E-01
          0                 4           1             4    7     1      -0.8102643212E-05       4    7    1        -0.4626872756E-03      0.1013909755E-02

    ------------------------------------------------
       NWT REQUIRED            4 OUTER ITERATIONS 
       AND A TOTAL OF          7 INNER ITERATIONS.
    ------------------------------------------------

 NO OUTPUT CONTROL FOR STRESS PERIOD   49   TIME STEP   14
 
 SOLVING FOR HEAD 
                                                   Max.-Head-Change                         Max.-Flux-Residual
  Residual-Control   Outer-Iter.   Inner-Iter.     Column Row Layer    Maximum-Head-Change  Column Row Layer    Maximum-Flux-Residual          L2-NORM 
          0                 1           2             4    7     1       0.3038509525E-01       4    7    1         0.1597242482E+01      0.3508970080E+01
          0                 2           2             4    7     1      -0.2955661004E-02       4    7    1        -0.1597255867E+00      0.3508962425E+00
          0                 3           2             4    7     1       0.2012693635E-03       4    7    1         0.1118078323E-01      0.2456261731E-01
          0                 4           1             4    7     1      -0.8008697249E-05       4    7    1        -0.4572947319E-03      0.1004595664E-02

    ------------------------------------------------
       NWT REQUIRED            4 OUTER ITERATIONS 
       AND A TOTAL OF          7 INNER ITERATIONS.
    ------------------------------------------------

 NO OUTPUT CONTROL FOR STRESS PERIOD   49   TIME STEP   15
 
 SOLVING FOR HEAD 
                                                   Max.-Head-Change                         Max.-Flux-Residual
  Residual-Control   Outer-Iter.   Inner-Iter.     Column Row Layer    Maximum-Head-Change  Column Row Layer    Maximum-Flux-Residual          L2-NORM 
          0                 1           2             4    7     1       0.3003467941E-01       4    7    1         0.1578725943E+01      0.3477067607E+01
          0                 2           2             4    7     1      -0.2921574620E-02       4    7    1        -0.1578739003E+00      0.3477064608E+00
          0                 3           2             4    7     1       0.1989482117E-03       4    7    1         0.1105116544E-01      0.2433934211E-01
          0                 4           1             4    7     1      -0.7916336592E-05       4    7    1        -0.4519933582E-03      0.9954746881E-03

    ------------------------------------------------
       NWT REQUIRED            4 OUTER ITERATIONS 
       AND A TOTAL OF          7 INNER ITERATIONS.
    ------------------------------------------------

 NO OUTPUT CONTROL FOR STRESS PERIOD   49   TIME STEP   16
 
 SOLVING FOR HEAD 
                                                   Max.-Head-Change                         Max.-Flux-Residual
  Residual-Control   Outer-Iter.   Inner-Iter.     Column Row Layer    Maximum-Head-Change  Column Row Layer    Maximum-Flux-Residual          L2-NORM 
          0                 1           2             4    7     1       0.2969001680E-01       4    7    1         0.1560513907E+01      0.3445682601E+01
          0                 2           2             4    7     1      -0.2888047880E-02       4    7    1        -0.1560526651E+00      0.3445679619E+00
          0                 3           2             4    7     1       0.1966651693E-03       4    7    1         0.1092367921E-01      0.2411966897E-01
          0                 4           1             4    7     1      -0.7825491705E-05       4    7    1        -0.4467791432E-03      0.9864873481E-03

    ------------------------------------------------
       NWT REQUIRED            4 OUTER ITERATIONS 
       AND A TOTAL OF          7 INNER ITERATIONS.
    ------------------------------------------------

 NO OUTPUT CONTROL FOR STRESS PERIOD   49   TIME STEP   17
 
 SOLVING FOR HEAD 
                                                   Max.-Head-Change                         Max.-Flux-Residual
  Residual-Control   Outer-Iter.   Inner-Iter.     Column Row Layer    Maximum-Head-Change  Column Row Layer    Maximum-Flux-Residual          L2-NORM 
          0                 1           2             4    7     1       0.2935112458E-01       4    7    1         0.1542607407E+01      0.3414806220E+01
          0                 2           2             4    7     1      -0.2855082454E-02       4    7    1        -0.1542619843E+00      0.3414803250E+00
          0                 3           2             4    7     1       0.1944203511E-03       4    7    1         0.1079833181E-01      0.2390351660E-01
          0                 4           1             4    7     1      -0.7736168805E-05       4    7    1        -0.4416524523E-03      0.9776528176E-03

    ------------------------------------------------
       NWT REQUIRED            4 OUTER ITERATIONS 
       AND A TOTAL OF          7 INNER ITERATIONS.
    ------------------------------------------------

 NO OUTPUT CONTROL FOR STRESS PERIOD   49   TIME STEP   18
 
 SOLVING FOR HEAD 
                                                   Max.-Head-Change                         Max.-Flux-Residual
  Residual-Control   Outer-Iter.   Inner-Iter.     Column Row Layer    Maximum-Head-Change  Column Row Layer    Maximum-Flux-Residual          L2-NORM 
          0                 1           2             4    7     1       0.2901788497E-01       4    7    1         0.1525000090E+01      0.3384434742E+01
          0                 2           2             4    7     1      -0.2822666885E-02       4    7    1        -0.1525012226E+00      0.3384431485E+00
          0                 3           2             4    7     1       0.1922129751E-03       4    7    1         0.1067507871E-01      0.2369092171E-01
          0                 4           1             4    7     1      -0.7648335080E-05       4    7    1        -0.4366113826E-03      0.9689610351E-03

    ------------------------------------------------
       NWT REQUIRED            4 OUTER ITERATIONS 
       AND A TOTAL OF          7 INNER ITERATIONS.
    ------------------------------------------------

 NO OUTPUT CONTROL FOR STRESS PERIOD   49   TIME STEP   19
 
 SOLVING FOR HEAD 
                                                   Max.-Head-Change                         Max.-Flux-Residual
  Residual-Control   Outer-Iter.   Inner-Iter.     Column Row Layer    Maximum-Head-Change  Column Row Layer    Maximum-Flux-Residual          L2-NORM 
          0                 1           2             4    7     1       0.2869030801E-01       4    7    1         0.1507693094E+01      0.3354546914E+01
          0                 2           2             4    7     1      -0.2790802150E-02       4    7    1        -0.1507704938E+00      0.3354543759E+00
          0                 3           2             4    7     1       0.1900431087E-03       4    7    1         0.1055392793E-01      0.2348171045E-01
          0                 4           1             4    7     1      -0.7561993985E-05       4    7    1        -0.4316562929E-03      0.9604029832E-03

    ------------------------------------------------
       NWT REQUIRED            4 OUTER ITERATIONS 
       AND A TOTAL OF          7 INNER ITERATIONS.
    ------------------------------------------------

 NO OUTPUT CONTROL FOR STRESS PERIOD   49   TIME STEP   20
 
 SOLVING FOR HEAD 
                                                   Max.-Head-Change                         Max.-Flux-Residual
  Residual-Control   Outer-Iter.   Inner-Iter.     Column Row Layer    Maximum-Head-Change  Column Row Layer    Maximum-Flux-Residual          L2-NORM 
          0                 1           2             4    7     1       0.2836800865E-01       4    7    1         0.1490665205E+01      0.3325134304E+01
          0                 2           2             4    7     1      -0.2759450792E-02       4    7    1        -0.1490676766E+00      0.3325130985E+00
          0                 3           2             4    7     1       0.1879082018E-03       4    7    1         0.1043473093E-01      0.2327582279E-01
          0                 4           1             4    7     1      -0.7477043977E-05       4    7    1        -0.4267811391E-03      0.9519786165E-03

    ------------------------------------------------
       NWT REQUIRED            4 OUTER ITERATIONS 
       AND A TOTAL OF          7 INNER ITERATIONS.
    ------------------------------------------------

 NO OUTPUT CONTROL FOR STRESS PERIOD   49   TIME STEP   21
 
 SOLVING FOR HEAD 
                                                   Max.-Head-Change                         Max.-Flux-Residual
  Residual-Control   Outer-Iter.   Inner-Iter.     Column Row Layer    Maximum-Head-Change  Column Row Layer    Maximum-Flux-Residual          L2-NORM 
          0                 1           2             4    7     1       0.2805101165E-01       4    7    1         0.1473918194E+01      0.3296189987E+01
          0                 2           2             4    7     1      -0.2728615220E-02       4    7    1        -0.1473929477E+00      0.3296186849E+00
          0                 3           2             4    7     1       0.1858084177E-03       4    7    1         0.1031750013E-01      0.2307321776E-01
          0                 4           1             4    7     1      -0.7393491848E-05       4    7    1        -0.4219863940E-03      0.9436944109E-03

    ------------------------------------------------
       NWT REQUIRED            4 OUTER ITERATIONS 
       AND A TOTAL OF          7 INNER ITERATIONS.
    ------------------------------------------------

 NO OUTPUT CONTROL FOR STRESS PERIOD   49   TIME STEP   22
 
 SOLVING FOR HEAD 
                                                   Max.-Head-Change                         Max.-Flux-Residual
  Residual-Control   Outer-Iter.   Inner-Iter.     Column Row Layer    Maximum-Head-Change  Column Row Layer    Maximum-Flux-Residual          L2-NORM 
          0                 1           2             4    7     1       0.2773934302E-01       4    7    1         0.1457453345E+01      0.3267701930E+01
          0                 2           2             4    7     1      -0.2698297965E-02       4    7    1        -0.1457464360E+00      0.3267698551E+00
          0                 3           2             4    7     1       0.1837439284E-03       4    7    1         0.1020224450E-01      0.2287380144E-01
          0                 4           1             4    7     1      -0.7311343585E-05       4    7    1        -0.4172724111E-03      0.9355349435E-03

    ------------------------------------------------
       NWT REQUIRED            4 OUTER ITERATIONS 
       AND A TOTAL OF          7 INNER ITERATIONS.
    ------------------------------------------------

 NO OUTPUT CONTROL FOR STRESS PERIOD   49   TIME STEP   23
 
 SOLVING FOR HEAD 
                                                   Max.-Head-Change                         Max.-Flux-Residual
  Residual-Control   Outer-Iter.   Inner-Iter.     Column Row Layer    Maximum-Head-Change  Column Row Layer    Maximum-Flux-Residual          L2-NORM 
          0                 1           2             4    7     1       0.2743274986E-01       4    7    1         0.1441257516E+01      0.3239656665E+01
          0                 2           2             4    7     1      -0.2668474425E-02       4    7    1        -0.1441268269E+00      0.3239653334E+00
          0                 3           2             4    7     1       0.1817130598E-03       4    7    1         0.1008887206E-01      0.2267747651E-01
          0                 4           1             4    7     1      -0.7230533334E-05       4    7    1        -0.4126354863E-03      0.9275090539E-03

    ------------------------------------------------
       NWT REQUIRED            4 OUTER ITERATIONS 
       AND A TOTAL OF          7 INNER ITERATIONS.
    ------------------------------------------------

 NO OUTPUT CONTROL FOR STRESS PERIOD   49   TIME STEP   24
 
 SOLVING FOR HEAD 
                                                   Max.-Head-Change                         Max.-Flux-Residual
  Residual-Control   Outer-Iter.   Inner-Iter.     Column Row Layer    Maximum-Head-Change  Column Row Layer    Maximum-Flux-Residual          L2-NORM 
          0                 1           2             4    7     1       0.2713126442E-01       4    7    1         0.1425332086E+01      0.3212057546E+01
          0                 2           2             4    7     1      -0.2639147738E-02       4    7    1        -0.1425342586E+00      0.3212053996E+00
          0                 3           2             4    7     1       0.1797160248E-03       4    7    1         0.9977392461E-02      0.2248430231E-01
          0                 4           1             4    7     1      -0.7151069502E-05       4    7    1        -0.4080759652E-03      0.9196254942E-03

    ------------------------------------------------
       NWT REQUIRED            4 OUTER ITERATIONS 
       AND A TOTAL OF          7 INNER ITERATIONS.
    ------------------------------------------------

 NO OUTPUT CONTROL FOR STRESS PERIOD   49   TIME STEP   25
 
 SOLVING FOR HEAD 
                                                   Max.-Head-Change                         Max.-Flux-Residual
  Residual-Control   Outer-Iter.   Inner-Iter.     Column Row Layer    Maximum-Head-Change  Column Row Layer    Maximum-Flux-Residual          L2-NORM 
          0                 1           2             4    7     1       0.2683463977E-01       4    7    1         0.1409664235E+01      0.3184881223E+01
          0                 2           2             4    7     1      -0.2610293883E-02       4    7    1        -0.1409674487E+00      0.3184877779E+00
          0                 3           2             4    7     1       0.1777511883E-03       4    7    1         0.9867715986E-02      0.2229405368E-01
          0                 4           1             4    7     1      -0.7072886924E-05       4    7    1        -0.4035901925E-03      0.9118309266E-03

    ------------------------------------------------
       NWT REQUIRED            4 OUTER ITERATIONS 
       AND A TOTAL OF          7 INNER ITERATIONS.
    ------------------------------------------------

 NO OUTPUT CONTROL FOR STRESS PERIOD   49   TIME STEP   26
 
 SOLVING FOR HEAD 
                                                   Max.-Head-Change                         Max.-Flux-Residual
  Residual-Control   Outer-Iter.   Inner-Iter.     Column Row Layer    Maximum-Head-Change  Column Row Layer    Maximum-Flux-Residual          L2-NORM 
          0                 1           2             4    7     1       0.2654203182E-01       4    7    1         0.1394255654E+01      0.3135785320E+01
          0                 2           2             4    7     1      -0.2581831227E-02       4    7    1        -0.1394265682E+00      0.3135781406E+00
          0                 3           2             4    7     1       0.1758129901E-03       4    7    1         0.9759854503E-02      0.2194754999E-01
          0                 4           1             4    7     1      -0.6995764326E-05       4    7    1        -0.3991786514E-03      0.8974831442E-03

    ------------------------------------------------
       NWT REQUIRED            4 OUTER ITERATIONS 
       AND A TOTAL OF          7 INNER ITERATIONS.
    ------------------------------------------------

 NO OUTPUT CONTROL FOR STRESS PERIOD   49   TIME STEP   27
 
 SOLVING FOR HEAD 
                                                   Max.-Head-Change                         Max.-Flux-Residual
  Residual-Control   Outer-Iter.   Inner-Iter.     Column Row Layer    Maximum-Head-Change  Column Row Layer    Maximum-Flux-Residual          L2-NORM 
          0                 1           2             4    7     1       0.2625414143E-01       4    7    1         0.1379048056E+01      0.3132107408E+01
          0                 2           2             4    7     1      -0.2553826544E-02       4    7    1        -0.1379057847E+00      0.3132102449E+00
          0                 3           2             4    7     1       0.1739059783E-03       4    7    1         0.9653399833E-02      0.2192460635E-01
          0                 4           1             4    7     1      -0.6919882343E-05       4    7    1        -0.3948246513E-03      0.8967134159E-03

    ------------------------------------------------
       NWT REQUIRED            4 OUTER ITERATIONS 
       AND A TOTAL OF          7 INNER ITERATIONS.
    ------------------------------------------------

 NO OUTPUT CONTROL FOR STRESS PERIOD   49   TIME STEP   28
 
 SOLVING FOR HEAD 
                                                   Max.-Head-Change                         Max.-Flux-Residual
  Residual-Control   Outer-Iter.   Inner-Iter.     Column Row Layer    Maximum-Head-Change  Column Row Layer    Maximum-Flux-Residual          L2-NORM 
          0                 1           2             4    7     1       0.2597100115E-01       4    7    1         0.1364092353E+01      0.3106121798E+01
          0                 2           2             4    7     1      -0.2526284375E-02       4    7    1        -0.1364101914E+00      0.3106116573E+00
          0                 3           2             4    7     1       0.1720304620E-03       4    7    1         0.9548708467E-02      0.2174270371E-01
          0                 4           1             4    7     1      -0.6845253754E-05       4    7    1        -0.3905427659E-03      0.8892732014E-03

    ------------------------------------------------
       NWT REQUIRED            4 OUTER ITERATIONS 
       AND A TOTAL OF          7 INNER ITERATIONS.
    ------------------------------------------------

 NO OUTPUT CONTROL FOR STRESS PERIOD   49   TIME STEP   29
 
 SOLVING FOR HEAD 
                                                   Max.-Head-Change                         Max.-Flux-Residual
  Residual-Control   Outer-Iter.   Inner-Iter.     Column Row Layer    Maximum-Head-Change  Column Row Layer    Maximum-Flux-Residual          L2-NORM 
          0                 1           2             4    7     1       0.2569250331E-01       4    7    1         0.1349382909E+01      0.3080526275E+01
          0                 2           2             4    7     1      -0.2499193800E-02       4    7    1        -0.1349392246E+00      0.3080521173E+00
          0                 3           2             4    7     1       0.1701856975E-03       4    7    1         0.9445740965E-02      0.2156355278E-01
          0                 4           1             4    7     1      -0.6771848742E-05       4    7    1        -0.3863313859E-03      0.8819574278E-03

    ------------------------------------------------
       NWT REQUIRED            4 OUTER ITERATIONS 
       AND A TOTAL OF          7 INNER ITERATIONS.
    ------------------------------------------------

 NO OUTPUT CONTROL FOR STRESS PERIOD   49   TIME STEP   30



 STREAM LISTING     PERIOD     49   STEP       30

 LAYER ROW COL. STREAM  RCH.  FLOW INTO     FLOW TO   FLOW OUT OF   OVRLND.     DIRECT     STREAM       STREAM     STREAM     STREAM   STREAMBED  STREAMBED
                SEG.NO.  NO.  STRM. RCH.    AQUIFER    STRM. RCH.    RUNOFF     PRECIP       ET          HEAD       DEPTH      WIDTH   CONDCTNC.   GRADIENT

   1    1    1     1     1    7.1250E+00  1.2038E-01   7.0046E+00  0.000E+00  0.000E+00  0.000E+00  1.09385E+03  8.024E-01  7.035E+00  3.166E-02  1.267E+00
   1    2    2     1     2    7.0046E+00  1.8492E-01   6.8197E+00  0.000E+00  0.000E+00  0.000E+00  1.08886E+03  7.976E-01  6.956E+00  4.869E-02  1.266E+00
   1    3    3     1     3    6.8197E+00  1.5635E-01   6.6634E+00  0.000E+00  0.000E+00  0.000E+00  1.08321E+03  7.929E-01  6.870E+00  4.122E-02  1.264E+00
   1    3    4     1     4    6.6634E+00  1.4286E-01   6.5205E+00  0.000E+00  0.000E+00  0.000E+00  1.07820E+03  7.886E-01  6.794E+00  3.771E-02  1.263E+00
   1    4    5     2     1    4.5205E+00  2.6715E-01   4.2533E+00  0.000E+00  0.000E+00  0.000E+00  1.07236E+03  4.251E-01  1.200E+01  7.800E-02  1.142E+00
   1    5    6     2     2    4.2533E+00  2.0467E-01   4.0487E+00  0.000E+00  0.000E+00  0.000E+00  1.06692E+03  4.112E-01  1.200E+01  6.000E-02  1.137E+00
   1    6    6     2     3    4.0487E+00  2.0394E-01   3.8447E+00  0.000E+00  0.000E+00  0.000E+00  1.06219E+03  3.989E-01  1.200E+01  6.000E-02  1.133E+00
   1    7    6     2     4    3.8447E+00  2.0319E-01   3.6416E+00  0.000E+00  0.000E+00  0.000E+00  1.05746E+03  3.864E-01  1.200E+01  6.000E-02  1.129E+00
   1    8    6     2     5    3.6416E+00  2.0242E-01   3.4391E+00  0.000E+00  0.000E+00  0.000E+00  1.05273E+03  3.737E-01  1.200E+01  6.000E-02  1.125E+00
   1    3    5     3     1    2.0000E+00  2.8252E-01   1.7175E+00  0.000E+00  0.000E+00  0.000E+00  1.07555E+03  1.909E+00  9.636E+00  7.227E-02  1.955E+00
   1    3    6     3     2    1.7175E+00  2.4905E-01   1.4684E+00  0.000E+00  0.000E+00  0.000E+00  1.07264E+03  1.727E+00  8.909E+00  6.682E-02  1.864E+00
   1    3    7     3     3    1.4684E+00  1.9718E-01   1.2712E+00  0.000E+00  0.000E+00  0.000E+00  1.06987E+03  1.555E+00  8.218E+00  5.547E-02  1.777E+00
   1    4    8     3     4    1.2712E+00  2.2567E-01   1.0456E+00  0.000E+00  0.000E+00  0.000E+00  1.06682E+03  1.364E+00  7.455E+00  6.709E-02  1.682E+00
   1    5    8     3     5    1.0456E+00  1.5790E-01   8.8768E-01  0.000E+00  0.000E+00  0.000E+00  1.06362E+03  1.164E+00  6.655E+00  4.991E-02  1.582E+00
   1    6    8     3     6    8.8768E-01  5.5980E-02   8.3170E-01  0.000E+00  0.000E+00  0.000E+00  1.06158E+03  1.036E+00  6.145E+00  1.844E-02  1.518E+00
   1    5   10     4     1    1.0000E+01  9.0919E-02   9.9091E+00  0.000E+00  0.000E+00  0.000E+00  1.07836E+03  6.368E-01  1.000E+01  2.500E-02  1.212E+00
   1    5    9     4     2    9.9091E+00  1.8158E-01   9.7275E+00  0.000E+00  0.000E+00  0.000E+00  1.07154E+03  6.315E-01  1.000E+01  5.000E-02  1.211E+00
   1    6    8     4     3    9.7275E+00  1.2689E-01   9.6006E+00  0.000E+00  0.000E+00  0.000E+00  1.06381E+03  6.256E-01  1.000E+01  3.500E-02  1.209E+00
   1    6    8     5     1    1.0432E+01  2.2686E-01   1.0205E+01  0.000E+00  0.000E+00  0.000E+00  1.05868E+03  6.790E-01  1.542E+01  6.166E-02  1.226E+00
   1    7    7     5     2    1.0205E+01  2.7894E-01   9.9265E+00  0.000E+00  0.000E+00  0.000E+00  1.05417E+03  6.732E-01  1.519E+01  7.594E-02  1.224E+00
   1    8    7     5     3    9.9265E+00  1.9221E-01   9.7343E+00  0.000E+00  0.000E+00  0.000E+00  1.04992E+03  6.676E-01  1.497E+01  5.241E-02  1.223E+00
   1    8    6     5     4    9.7343E+00  1.3577E-01   9.5985E+00  0.000E+00  0.000E+00  0.000E+00  1.04691E+03  6.637E-01  1.482E+01  3.706E-02  1.221E+00
   1    9    6     6     1    1.3038E+01  2.2931E-01   1.2808E+01  0.000E+00  0.000E+00  0.000E+00  1.04355E+03  8.218E-01  1.200E+01  6.000E-02  1.274E+00
   1   10    7     6     2    1.2808E+01  2.2878E-01   1.2580E+01  0.000E+00  0.000E+00  0.000E+00  1.03899E+03  8.131E-01  1.200E+01  6.000E-02  1.271E+00
   1   11    7     6     3    1.2580E+01  2.2826E-01   1.2351E+01  0.000E+00  0.000E+00  0.000E+00  1.03444E+03  8.043E-01  1.200E+01  6.000E-02  1.268E+00
   1   12    7     6     4    1.2351E+01  2.2772E-01   1.2124E+01  0.000E+00  0.000E+00  0.000E+00  1.02989E+03  7.954E-01  1.200E+01  6.000E-02  1.265E+00
   1   13    7     6     5    1.2124E+01  1.0242E-02   1.2113E+01  0.000E+00  0.000E+00  0.000E+00  1.02670E+03  7.908E-01  1.200E+01  2.400E-02  1.422E-01
   1   14    9     7     1    1.5000E+02  1.4186E+00   1.4858E+02  0.000E+00  0.000E+00  0.000E+00  1.03987E+03  2.287E+00  5.529E+01  5.593E-01  8.455E-01
   1   13    8     7     2    1.4858E+02  2.0941E+00   1.4649E+02  0.000E+00  0.000E+00  0.000E+00  1.03478E+03  2.278E+00  5.525E+01  6.147E-01  1.136E+00
   1   13    7     7     3    1.4649E+02  1.9059E+00   1.4458E+02  0.000E+00  0.000E+00  0.000E+00  1.02969E+03  2.267E+00  5.520E+01  5.583E-01  1.138E+00
   1   13    6     8     1    1.5669E+02  1.2683E+00   1.5543E+02  0.000E+00  0.000E+00  0.000E+00  1.02473E+03  2.859E+00  4.146E+01  4.224E-01  1.001E+00
   1   13    5     8     2    1.5543E+02  5.0900E-01   1.5492E+02  0.000E+00  0.000E+00  0.000E+00  1.01848E+03  2.853E+00  4.137E+01  4.215E-01  4.025E-01
   1   13    4     8     3    1.5492E+02 -1.2746E+00   1.5619E+02  0.000E+00  0.000E+00  0.000E+00  1.01223E+03  2.856E+00  4.140E+01  4.219E+00 -1.007E-01
   1   13    3     8     4    1.5619E+02 -3.0820E+00   1.5927E+02  0.000E+00  0.000E+00  0.000E+00  1.00600E+03  2.870E+00  4.162E+01  4.241E+00 -2.422E-01
   1   13    2     8     5    1.5927E+02 -2.4425E+00   1.6172E+02  0.000E+00  0.000E+00  0.000E+00  9.99764E+02  2.889E+00  4.189E+01  4.269E+00 -1.907E-01
   1   13    1     8     6    1.6172E+02 -1.9502E+00   1.6367E+02  0.000E+00  0.000E+00  0.000E+00  9.94779E+02  2.904E+00  4.211E+01  2.575E+00 -2.525E-01
   1    8    6     9     1    0.0000E+00  0.0000E+00   0.0000E+00  0.000E+00  0.000E+00  0.000E+00  1.07875E+03  0.000E+00  4.000E+00  0.000E+00  1.000E+00
   1    8    5     9     2    0.0000E+00  0.0000E+00   0.0000E+00  0.000E+00  0.000E+00  0.000E+00  1.07825E+03  0.000E+00  4.000E+00  0.000E+00  1.000E+00





UNSATURATED ZONE PACKAGE VOLUMETRIC BUDGET FOR  TIME STEP    30 STRESS PERIOD   49
  ------------------------------------------------------------------------------



     CUMULATIVE VOLUMES      L**3       RATES FOR THIS TIME STEP      L**3/T
     ------------------                 ------------------------

           IN:                                      IN:
           ---                                      ---
        INFILTRATION =  1706838502.9482          INFILTRATION =           0.8475

          OUT:                                     OUT:
          ----                                     ----
              UZF ET =  1705500088.0814                UZF ET =           0.7500
        UZF RECHARGE =       73224.0000          UZF RECHARGE =       0.0000E+00

            IN - OUT =     1265190.8669              IN - OUT =       9.7500E-02

          STORAGE:                                 STORAGE:
          --------                                 --------
      STORAGE CHANGE =     1265191.0650        STORAGE CHANGE =       9.7500E-02

 PERCENT DISCREPANCY IS DIFFERENCE BETWEEN IN-OUT MINUS CHANGE IN STORAGE
 DIVIDED BY THE AVERAGE OF IN AND OUT TIMES 100

 PERCENT DISCREPANCY =           0.00     PERCENT DISCREPANCY =           0.00






1
  VOLUMETRIC BUDGET FOR AGRICULTURAL FIELDS AT  END OF TIME STEP   30, STRESS PERIOD  49
  ------------------------------------------------------------------------------

     CUMULATIVE VOLUMES      L**3       RATES FOR THIS TIME STEP      L**3/T
     ------------------                 ------------------------

           IN:                                      IN:
           ---                                      ---
               AG WELLS  =  1599775104.0000                 AG WELLS  =           0.0000
      DIVERSION SEGMENTS =           0.0000        DIVERSION SEGMENTS =           0.0000
       IRRIGATION PONDS  =           0.0000         IRRIGATION PONDS  =           0.0000
           GW IRRIGATION =           0.0000             GW IRRIGATION =           0.0000
           SW IRRIGATION =           0.0000             SW IRRIGATION =           0.0000
        SYSTEM LOSSES GW =           0.0000          SYSTEM LOSSES GW =           0.0000
        SYSTEM LOSSES SW =           0.0000          SYSTEM LOSSES SW =           0.0000

                TOTAL IN =  1599775104.0000                  TOTAL IN =           0.0000

          OUT:                                     OUT:
          ----                                     ----
               AG WELLS  =           0.0000                 AG WELLS  =           0.0000
      DIVERSION SEGMENTS =           0.0000        DIVERSION SEGMENTS =           0.0000
       IRRIGATION PONDS  =           0.0000         IRRIGATION PONDS  =           0.0000
           GW IRRIGATION =  1599775104.0000             GW IRRIGATION =           0.0000
           SW IRRIGATION =           0.0000             SW IRRIGATION =           0.0000
        SYSTEM LOSSES GW =           0.0000          SYSTEM LOSSES GW =           0.0000
        SYSTEM LOSSES SW =           0.0000          SYSTEM LOSSES SW =           0.0000

               TOTAL OUT =  1599775104.0000                 TOTAL OUT =           0.0000

                IN - OUT =           0.0000                  IN - OUT =           0.0000

     PERCENT DISCREPANCY =           0.00         PERCENT DISCREPANCY =           0.00



1
  VOLUMETRIC BUDGET FOR ENTIRE MODEL AT END OF TIME STEP   30, STRESS PERIOD  49
  ------------------------------------------------------------------------------

     CUMULATIVE VOLUMES      L**3       RATES FOR THIS TIME STEP      L**3/T
     ------------------                 ------------------------

           IN:                                      IN:
           ---                                      ---
             STORAGE     =  2130783104.0000               STORAGE     =           7.0514
       CONSTANT HEAD     =           0.0000         CONSTANT HEAD     =           0.0000
     HEAD DEP BOUNDS     =    36515504.0000       HEAD DEP BOUNDS     =           0.2914
      STREAM LEAKAGE     =  1539238784.0000        STREAM LEAKAGE     =          12.2076
        UZF RECHARGE     =       73223.9531          UZF RECHARGE     =           0.0000
               GW ET     =           0.0000                 GW ET     =           0.0000
     SURFACE LEAKAGE     =           0.0000       SURFACE LEAKAGE     =           0.0000
           AG WELLS      =           0.0000             AG WELLS      =           0.0000

                TOTAL IN =  3706610688.0000                  TOTAL IN =          19.5504

          OUT:                                     OUT:
          ----                                     ----
             STORAGE     =   861475072.0000               STORAGE     =          10.5146
       CONSTANT HEAD     =           0.0000         CONSTANT HEAD     =           0.0000
     HEAD DEP BOUNDS     =    36459824.0000       HEAD DEP BOUNDS     =           0.2864
      STREAM LEAKAGE     =  1208913920.0000        STREAM LEAKAGE     =           8.7493
        UZF RECHARGE     =           0.0000          UZF RECHARGE     =           0.0000
               GW ET     =           0.0000                 GW ET     =           0.0000
     SURFACE LEAKAGE     =           0.0000       SURFACE LEAKAGE     =           0.0000
           AG WELLS      =  1599775104.0000             AG WELLS      =           0.0000

               TOTAL OUT =  3706624000.0000                 TOTAL OUT =          19.5503

                IN - OUT =      -13312.0000                  IN - OUT =       1.7166E-05

     PERCENT DISCREPANCY =          -0.00         PERCENT DISCREPANCY =           0.00






         TIME SUMMARY AT END OF TIME STEP   30 IN STRESS PERIOD   49
                    SECONDS     MINUTES      HOURS       DAYS        YEARS
                    -----------------------------------------------------------
   TIME STEP LENGTH  87667.      1461.1      24.352      1.0147     2.77799E-03
 STRESS PERIOD TIME 2.63000E+06  43833.      730.56      30.440     8.33397E-02
         TOTAL TIME 1.26325E+08 2.10542E+06  35090.      1462.1      4.0030    
1


 Run end date and time (yyyy/mm/dd hh:mm:ss): 2022/03/11  9:19:39
 Elapsed run time: 3.231 Seconds

